@<TRIPOS>COMMENT
   inp8.mol2               2    of   10
                  SCORE =  -475.8745
               dG-SCORE =   -11.0905
      LIGAND_EFFICIENCY =    -0.8979
  NUMBER_OF_HEAVY_ATOMS =         53
                    ASA =  -356.8960
                    ELE =     0.0000
                    HYD =  -107.3348
                    VDW =   -11.6438
                   RMSD =    34.1674
 MOLECULAR_WEIGHT = 789.59
@<TRIPOS>MOLECULE
inp8.mol2                                                                       
   90   95    0    0    0
SMALL       
GASTEIGER      
 
@<TRIPOS>ATOM
    1 P       111.2920  121.7023  137.5307 P.3      1 UNK          0.0000
    2 P       111.0128  121.5368  140.3945 P.3      1 UNK          0.0000
    3 O       112.9929  124.9263  136.1493 O.3      1 UNK          0.0000
    4 O       112.1546  128.0143  135.3662 O.3      1 UNK          0.0000
    5 H       112.4473  128.4934  134.5731 H        1 UNK          0.0000
    6 O       109.9192  126.7266  136.3783 O.3      1 UNK          0.0000
    7 H       110.4111  127.5174  136.6748 H        1 UNK          0.0000
    8 O       110.9544  123.1464  136.9470 O.3      1 UNK          0.0000
    9 O       107.9992  117.1556  139.8660 O.3      1 UNK          0.0000
   10 H       108.0572  116.1976  139.6567 H        1 UNK          0.0000
   11 O       110.5002  121.3597  138.8781 O.3      1 UNK          0.0000
   12 O       106.4398  119.4548  141.2650 O.3      1 UNK          0.0000
   13 H       106.5041  120.3792  141.5815 H        1 UNK          0.0000
   14 O       109.7178  121.8971  141.3105 O.3      1 UNK          0.0000
   15 O       109.9006  118.8935  142.0488 O.3      1 UNK          0.0000
   16 H       109.5698  118.5972  142.9135 H        1 UNK          0.0000
   17 O       110.9266  120.5997  136.4391 O.3      1 UNK          0.0000
   18 H       111.5201  120.7509  135.6929 H        1 UNK          0.0000
   19 O       112.8734  121.6994  137.7752 O.3      1 UNK          0.0000
   20 H       113.3163  121.8445  136.9425 H        1 UNK          0.0000
   21 O       111.7499  120.2218  140.9145 O.3      1 UNK          0.0000
   22 H       111.9269  119.6227  140.1790 H        1 UNK          0.0000
   23 O       107.9350  110.4715  140.2343 O.2      1 UNK          0.0000
   24 O       112.2565  122.5562  140.6128 O.3      1 UNK          0.0000
   25 H       113.0239  122.3095  140.0623 H        1 UNK          0.0000
   26 O       105.5254  112.7400  143.3144 O.2      1 UNK          0.0000
   27 N       113.4667  125.0397  133.8870 N.ar     1 UNK          0.0000
   28 N       109.0603  115.1158  141.2790 N.ar     1 UNK          0.0000
   29 N       114.4578  124.1457  132.0258 N.ar     1 UNK          0.0000
   30 N       111.4579  123.6111  133.9420 N.ar     1 UNK          0.0000
   31 N       109.8009  112.6600  139.8784 N.ar     1 UNK          0.0000
   32 H       110.0463  111.7834  139.4227 H        1 UNK          0.0000
   33 N       107.2807  113.8385  142.4321 N.am     1 UNK          0.0000
   34 H       107.0871  114.6405  143.0086 H        1 UNK          0.0000
   35 N       111.5233  121.8824  132.2314 N.ar     1 UNK          0.0000
   36 N       106.6981  111.5449  141.7874 N.am     1 UNK          0.0000
   37 H       106.0729  110.7625  141.8589 H        1 UNK          0.0000
   38 N       113.3700  121.7025  130.6999 N.pl3    1 UNK          0.0000
   39 H       112.9248  120.9081  130.2522 H        1 UNK          0.0000
   40 H       114.2527  122.0486  130.3481 H        1 UNK          0.0000
   41 C       111.8906  126.6697  134.9459 C.3      1 UNK          0.0000
   42 H       111.4714  126.6450  133.9343 H        1 UNK          0.0000
   43 C       110.9530  125.9131  135.8923 C.3      1 UNK          0.0000
   44 H       110.5257  125.0318  135.4018 H        1 UNK          0.0000
   45 C       113.2012  125.8474  135.0607 C.3      1 UNK          0.0000
   46 H       114.0720  126.4756  135.2460 H        1 UNK          0.0000
   47 C       111.9167  125.4147  136.9453 C.3      1 UNK          0.0000
   48 H       112.2341  126.2430  137.5749 H        1 UNK          0.0000
   49 C       111.3336  124.2673  137.7666 C.3      1 UNK          0.0000
   50 H       112.1086  123.9240  138.4684 H        1 UNK          0.0000
   51 H       110.4784  124.6471  138.3394 H        1 UNK          0.0000
   52 C       112.6603  124.0637  133.4450 C.ar     1 UNK          0.0000
   53 C       114.5896  124.9995  133.0513 C.ar     1 UNK          0.0000
   54 H       115.4578  125.6060  133.2483 H        1 UNK          0.0000
   55 C       113.3305  123.4948  132.3531 C.ar     1 UNK          0.0000
   56 C       107.6662  117.2560  141.2358 C.3      1 UNK          0.0000
   57 H       106.6844  116.7992  141.3562 H        1 UNK          0.0000
   58 C       108.6785  116.3782  142.0090 C.3      1 UNK          0.0000
   59 H       108.2321  116.1357  142.9855 H        1 UNK          0.0000
   60 H       109.5639  116.9739  142.2409 H        1 UNK          0.0000
   61 C       107.5698  118.7318  141.7552 C.3      1 UNK          0.0000
   62 H       107.4982  118.7028  142.8490 H        1 UNK          0.0000
   63 C       110.2157  115.0904  140.3510 C.ar     1 UNK          0.0000
   64 C       108.8243  119.5336  141.3706 C.3      1 UNK          0.0000
   65 H       108.9755  119.5031  140.2929 H        1 UNK          0.0000
   66 C       108.3452  113.9144  141.4807 C.ar     1 UNK          0.0000
   67 C       110.5447  113.8077  139.7181 C.ar     1 UNK          0.0000
   68 C       108.6560  112.6973  140.7407 C.ar     1 UNK          0.0000
   69 C       112.7514  122.3490  131.7614 C.ar     1 UNK          0.0000
   70 C       108.6267  121.0281  141.7004 C.3      1 UNK          0.0000
   71 H       108.4386  121.0774  142.7774 H        1 UNK          0.0000
   72 H       107.7077  121.3900  141.2240 H        1 UNK          0.0000
   73 C       111.0907  116.2023  140.1660 C.ar     1 UNK          0.0000
   74 H       110.9133  117.1786  140.6081 H        1 UNK          0.0000
   75 C       111.7334  113.6876  138.9212 C.ar     1 UNK          0.0000
   76 H       111.9886  112.7465  138.4511 H        1 UNK          0.0000
   77 C       112.3223  116.0115  139.4308 C.ar     1 UNK          0.0000
   78 C       112.5515  114.7902  138.7908 C.ar     1 UNK          0.0000
   79 C       110.9204  122.5551  133.2959 C.ar     1 UNK          0.0000
   80 H       109.9340  122.2339  133.6203 H        1 UNK          0.0000
   81 C       107.7789  111.4890  140.8818 C.2      1 UNK          0.0000
   82 C       106.4794  112.7008  142.5625 C.2      1 UNK          0.0000
   83 C       113.4211  117.0259  139.3563 C.3      1 UNK          0.0000
   84 H       113.6474  117.2515  138.2939 H        1 UNK          0.0000
   85 H       113.0965  117.9521  139.8442 H        1 UNK          0.0000
   86 H       114.3664  116.7237  139.8141 H        1 UNK          0.0000
   87 C       113.7651  114.6924  137.9160 C.3      1 UNK          0.0000
   88 H       114.6501  114.8863  138.5228 H        1 UNK          0.0000
   89 H       113.6732  115.4566  137.1339 H        1 UNK          0.0000
   90 H       113.8000  113.7111  137.4722 H        1 UNK          0.0000
@<TRIPOS>BOND
     1     1     8   1 
     2     1    11   1 
     3     1    17   1 
     4     1    19   1 
     5     2    11   1 
     6     2    14   1 
     7     2    21   1 
     8     2    24   1 
     9     3    45   1 
    10     3    47   1 
    11     4     5   1 
    12     4    41   1 
    13     6     7   1 
    14     6    43   1 
    15     8    49   1 
    16     9    10   1 
    17     9    56   1 
    18    12    13   1 
    19    12    61   1 
    20    14    70   1 
    21    15    16   1 
    22    15    64   1 
    23    17    18   1 
    24    19    20   1 
    25    21    22   1 
    26    23    81   2 
    27    24    25   1 
    28    26    82   2 
    29    27    45   1 
    30    27    52   1 
    31    27    53   1 
    32    28    58   1 
    33    28    63   ar
    34    28    66   ar
    35    29    53   2 
    36    29    55   1 
    37    30    52   ar
    38    30    79   ar
    39    31    32   1 
    40    31    67   ar
    41    31    68   ar
    42    33    34   1 
    43    33    66   1 
    44    33    82   am
    45    35    69   ar
    46    35    79   ar
    47    36    37   1 
    48    36    81   am
    49    36    82   am
    50    38    39   1 
    51    38    40   1 
    52    38    69   1 
    53    41    42   1 
    54    41    43   1 
    55    41    45   1 
    56    43    44   1 
    57    43    47   1 
    58    45    46   1 
    59    47    48   1 
    60    47    49   1 
    61    49    50   1 
    62    49    51   1 
    63    52    55   ar
    64    53    54   1 
    65    55    69   ar
    66    56    57   1 
    67    56    58   1 
    68    56    61   1 
    69    58    59   1 
    70    58    60   1 
    71    61    62   1 
    72    61    64   1 
    73    63    67   ar
    74    63    73   ar
    75    64    65   1 
    76    64    70   1 
    77    66    68   ar
    78    67    75   ar
    79    68    81   1 
    80    70    71   1 
    81    70    72   1 
    82    73    74   1 
    83    73    77   ar
    84    75    76   1 
    85    75    78   ar
    86    77    78   ar
    87    77    83   1 
    88    78    87   1 
    89    79    80   1 
    90    83    84   1 
    91    83    85   1 
    92    83    86   1 
    93    87    88   1 
    94    87    89   1 
    95    87    90   1 
 
