@<TRIPOS>COMMENT
   inp8.mol2               5    of   10
                  SCORE =  -508.9649
               dG-SCORE =   -11.7738
      LIGAND_EFFICIENCY =    -0.9603
  NUMBER_OF_HEAVY_ATOMS =         53
                    ASA =  -391.3518
                    ELE =     0.0000
                    HYD =  -102.1571
                    VDW =   -15.4560
                   RMSD =    32.6885
 MOLECULAR_WEIGHT = 789.59
@<TRIPOS>MOLECULE
inp8.mol2                                                                       
   90   95    0    0    0
SMALL       
GASTEIGER      
 
@<TRIPOS>ATOM
    1 P       108.8899  123.2092  139.4118 P.3      1 UNK          0.0000
    2 P       107.1270  122.4631  141.5629 P.3      1 UNK          0.0000
    3 O       107.9213  125.5736  137.0865 O.3      1 UNK          0.0000
    4 O       106.1117  125.9858  134.3587 O.3      1 UNK          0.0000
    5 H       106.2639  126.6563  133.6704 H        1 UNK          0.0000
    6 O       106.2988  123.1900  135.1055 O.3      1 UNK          0.0000
    7 H       105.4402  123.6241  135.2530 H        1 UNK          0.0000
    8 O       108.1089  122.8208  138.0722 O.3      1 UNK          0.0000
    9 O       110.6755  117.0446  143.0050 O.3      1 UNK          0.0000
   10 H       111.0363  116.5227  142.2533 H        1 UNK          0.0000
   11 O       108.4622  122.2996  140.6800 O.3      1 UNK          0.0000
   12 O       108.3836  117.8705  144.3097 O.3      1 UNK          0.0000
   13 H       108.0912  118.3712  145.0963 H        1 UNK          0.0000
   14 O       106.4493  121.0258  141.8925 O.3      1 UNK          0.0000
   15 O       108.0947  120.7774  144.2528 O.3      1 UNK          0.0000
   16 H       107.6886  120.1761  144.8986 H        1 UNK          0.0000
   17 O       110.4504  122.9849  139.0693 O.3      1 UNK          0.0000
   18 H       110.7368  123.7126  138.4745 H        1 UNK          0.0000
   19 O       108.6196  124.7777  139.6937 O.3      1 UNK          0.0000
   20 H       108.8125  125.3018  138.8910 H        1 UNK          0.0000
   21 O       107.2223  123.3364  142.8989 O.3      1 UNK          0.0000
   22 H       107.5135  124.2401  142.6673 H        1 UNK          0.0000
   23 O       112.8181  114.0617  137.7349 O.2      1 UNK          0.0000
   24 O       106.1870  123.4999  140.8368 O.3      1 UNK          0.0000
   25 H       106.3193  124.3513  141.3018 H        1 UNK          0.0000
   26 O       112.5175  118.5035  137.6771 O.2      1 UNK          0.0000
   27 N       109.3019  126.9265  135.7295 N.ar     1 UNK          0.0000
   28 N       109.4447  116.2701  140.5792 N.ar     1 UNK          0.0000
   29 N       110.9738  128.5212  135.4880 N.ar     1 UNK          0.0000
   30 N       110.8053  124.9642  135.9722 N.ar     1 UNK          0.0000
   31 N       110.2827  113.8442  139.2091 N.ar     1 UNK          0.0000
   32 H       110.5140  113.0098  138.6681 H        1 UNK          0.0000
   33 N       111.0999  117.4470  139.1454 N.am     1 UNK          0.0000
   34 H       110.7404  118.3471  139.4681 H        1 UNK          0.0000
   35 N       113.1345  125.5100  135.3605 N.ar     1 UNK          0.0000
   36 N       112.7873  116.2821  137.7505 N.am     1 UNK          0.0000
   37 H       113.5559  116.3521  137.0903 H        1 UNK          0.0000
   38 N       113.6240  127.7196  134.5594 N.pl3    1 UNK          0.0000
   39 H       114.5513  127.4372  134.2979 H        1 UNK          0.0000
   40 H       113.2901  128.6562  134.3770 H        1 UNK          0.0000
   41 C       107.3960  125.4774  134.7728 C.3      1 UNK          0.0000
   42 H       108.1048  125.4469  133.9454 H        1 UNK          0.0000
   43 C       107.2978  124.1226  135.5135 C.3      1 UNK          0.0000
   44 H       108.2936  123.6656  135.5858 H        1 UNK          0.0000
   45 C       107.9484  126.3815  135.8900 C.3      1 UNK          0.0000
   46 H       107.2531  127.2175  135.9865 H        1 UNK          0.0000
   47 C       106.9114  124.5861  136.8808 C.3      1 UNK          0.0000
   48 H       105.9296  125.0542  136.7840 H        1 UNK          0.0000
   49 C       106.8300  123.4094  137.8822 C.3      1 UNK          0.0000
   50 H       106.4712  123.7421  138.8609 H        1 UNK          0.0000
   51 H       106.1092  122.6974  137.4919 H        1 UNK          0.0000
   52 C       110.4893  126.2881  135.7606 C.ar     1 UNK          0.0000
   53 C       109.6777  128.2705  135.6155 C.ar     1 UNK          0.0000
   54 H       108.9235  129.0376  135.6326 H        1 UNK          0.0000
   55 C       111.4421  127.2664  135.4563 C.ar     1 UNK          0.0000
   56 C       109.9148  118.0397  142.3868 C.3      1 UNK          0.0000
   57 H       110.6080  118.7253  141.9048 H        1 UNK          0.0000
   58 C       108.9554  117.5067  141.3114 C.3      1 UNK          0.0000
   59 H       108.7052  118.3344  140.6488 H        1 UNK          0.0000
   60 H       108.0025  117.2715  141.8046 H        1 UNK          0.0000
   61 C       109.2018  118.7556  143.5372 C.3      1 UNK          0.0000
   62 H       110.0301  119.0692  144.1726 H        1 UNK          0.0000
   63 C       108.9013  115.0256  140.9335 C.ar     1 UNK          0.0000
   64 C       108.4262  120.0264  143.0919 C.3      1 UNK          0.0000
   65 H       109.0731  120.5865  142.4048 H        1 UNK          0.0000
   66 C       110.5264  116.2865  139.5904 C.ar     1 UNK          0.0000
   67 C       109.2460  113.7977  140.2079 C.ar     1 UNK          0.0000
   68 C       110.9891  115.0201  139.0106 C.ar     1 UNK          0.0000
   69 C       112.7639  126.8312  135.1390 C.ar     1 UNK          0.0000
   70 C       107.1310  119.7994  142.3007 C.3      1 UNK          0.0000
   71 H       106.4740  119.1903  142.9281 H        1 UNK          0.0000
   72 H       107.4104  119.2145  141.4196 H        1 UNK          0.0000
   73 C       108.0239  114.8905  142.0828 C.ar     1 UNK          0.0000
   74 H       107.7934  115.7663  142.6854 H        1 UNK          0.0000
   75 C       108.6449  112.5826  140.5322 C.ar     1 UNK          0.0000
   76 H       108.8327  111.6888  139.9357 H        1 UNK          0.0000
   77 C       107.4956  113.6476  142.4720 C.ar     1 UNK          0.0000
   78 C       107.7966  112.4691  141.6926 C.ar     1 UNK          0.0000
   79 C       112.1438  124.6535  135.8439 C.ar     1 UNK          0.0000
   80 H       112.4362  123.6622  136.1683 H        1 UNK          0.0000
   81 C       112.2748  115.0632  138.1395 C.2      1 UNK          0.0000
   82 C       112.1659  117.4682  138.1767 C.2      1 UNK          0.0000
   83 C       106.6223  113.5716  143.7421 C.3      1 UNK          0.0000
   84 H       107.0316  112.8483  144.4528 H        1 UNK          0.0000
   85 H       106.5706  114.5454  144.2483 H        1 UNK          0.0000
   86 H       105.5972  113.2586  143.5200 H        1 UNK          0.0000
   87 C       107.2803  111.1037  142.0680 C.3      1 UNK          0.0000
   88 H       106.1880  111.1069  142.1887 H        1 UNK          0.0000
   89 H       107.7254  110.7704  143.0161 H        1 UNK          0.0000
   90 H       107.5267  110.3497  141.3086 H        1 UNK          0.0000
@<TRIPOS>BOND
     1     1     8   1 
     2     1    11   1 
     3     1    17   1 
     4     1    19   1 
     5     2    11   1 
     6     2    14   1 
     7     2    21   1 
     8     2    24   1 
     9     3    45   1 
    10     3    47   1 
    11     4     5   1 
    12     4    41   1 
    13     6     7   1 
    14     6    43   1 
    15     8    49   1 
    16     9    10   1 
    17     9    56   1 
    18    12    13   1 
    19    12    61   1 
    20    14    70   1 
    21    15    16   1 
    22    15    64   1 
    23    17    18   1 
    24    19    20   1 
    25    21    22   1 
    26    23    81   2 
    27    24    25   1 
    28    26    82   2 
    29    27    45   1 
    30    27    52   1 
    31    27    53   1 
    32    28    58   1 
    33    28    63   ar
    34    28    66   ar
    35    29    53   2 
    36    29    55   1 
    37    30    52   ar
    38    30    79   ar
    39    31    32   1 
    40    31    67   ar
    41    31    68   ar
    42    33    34   1 
    43    33    66   1 
    44    33    82   am
    45    35    69   ar
    46    35    79   ar
    47    36    37   1 
    48    36    81   am
    49    36    82   am
    50    38    39   1 
    51    38    40   1 
    52    38    69   1 
    53    41    42   1 
    54    41    43   1 
    55    41    45   1 
    56    43    44   1 
    57    43    47   1 
    58    45    46   1 
    59    47    48   1 
    60    47    49   1 
    61    49    50   1 
    62    49    51   1 
    63    52    55   ar
    64    53    54   1 
    65    55    69   ar
    66    56    57   1 
    67    56    58   1 
    68    56    61   1 
    69    58    59   1 
    70    58    60   1 
    71    61    62   1 
    72    61    64   1 
    73    63    67   ar
    74    63    73   ar
    75    64    65   1 
    76    64    70   1 
    77    66    68   ar
    78    67    75   ar
    79    68    81   1 
    80    70    71   1 
    81    70    72   1 
    82    73    74   1 
    83    73    77   ar
    84    75    76   1 
    85    75    78   ar
    86    77    78   ar
    87    77    83   1 
    88    78    87   1 
    89    79    80   1 
    90    83    84   1 
    91    83    85   1 
    92    83    86   1 
    93    87    88   1 
    94    87    89   1 
    95    87    90   1 
 
