@<TRIPOS>COMMENT
   inp8.mol2               6    of   10
                  SCORE =  -507.2247
               dG-SCORE =   -11.8831
      LIGAND_EFFICIENCY =    -0.9570
  NUMBER_OF_HEAVY_ATOMS =         53
                    ASA =  -383.9488
                    ELE =     0.0000
                    HYD =  -109.5328
                    VDW =   -13.7430
                   RMSD =    31.5387
 MOLECULAR_WEIGHT = 789.59
@<TRIPOS>MOLECULE
inp8.mol2                                                                       
   90   95    0    0    0
SMALL       
GASTEIGER      
 
@<TRIPOS>ATOM
    1 P       107.6985  123.8870  140.0591 P.3      1 UNK          0.0000
    2 P       105.9112  123.3844  142.2964 P.3      1 UNK          0.0000
    3 O       109.9999  121.7546  137.6216 O.3      1 UNK          0.0000
    4 O       112.9990  120.3542  137.6149 O.3      1 UNK          0.0000
    5 H       113.6455  120.3873  136.8902 H        1 UNK          0.0000
    6 O       112.4610  121.2930  140.2417 O.3      1 UNK          0.0000
    7 H       112.5963  120.3530  140.0227 H        1 UNK          0.0000
    8 O       109.1065  123.1191  139.9995 O.3      1 UNK          0.0000
    9 O       107.7944  118.0162  141.0835 O.3      1 UNK          0.0000
   10 H       107.4885  117.0973  141.1815 H        1 UNK          0.0000
   11 O       107.1645  124.0632  141.5867 O.3      1 UNK          0.0000
   12 O       109.8930  119.9171  143.2047 O.3      1 UNK          0.0000
   13 H       110.2223  120.8280  143.1105 H        1 UNK          0.0000
   14 O       105.7354  121.8903  141.6561 O.3      1 UNK          0.0000
   15 O       107.2099  120.6495  143.7708 O.3      1 UNK          0.0000
   16 H       106.9717  119.7075  143.8266 H        1 UNK          0.0000
   17 O       108.0326  125.3706  139.5386 O.3      1 UNK          0.0000
   18 H       108.4196  125.3322  138.6422 H        1 UNK          0.0000
   19 O       106.7265  123.3469  138.9205 O.3      1 UNK          0.0000
   20 H       107.2113  123.4363  138.0783 H        1 UNK          0.0000
   21 O       105.9558  123.1731  143.8835 O.3      1 UNK          0.0000
   22 H       106.2206  123.9956  144.3126 H        1 UNK          0.0000
   23 O       105.9918  112.5229  144.6801 O.2      1 UNK          0.0000
   24 O       104.6800  124.3991  142.0259 O.3      1 UNK          0.0000
   25 H       104.7498  125.1572  142.6274 H        1 UNK          0.0000
   26 O       106.6181  116.4061  146.9190 O.2      1 UNK          0.0000
   27 N       111.3251  122.9368  135.9489 N.ar     1 UNK          0.0000
   28 N       108.6913  116.0345  142.7058 N.ar     1 UNK          0.0000
   29 N       111.5155  124.1980  134.0281 N.ar     1 UNK          0.0000
   30 N       111.7092  124.8243  137.5256 N.ar     1 UNK          0.0000
   31 N       107.5867  113.3894  142.4343 N.ar     1 UNK          0.0000
   32 H       107.2325  112.4312  142.4086 H        1 UNK          0.0000
   33 N       107.5245  116.2968  144.8846 N.am     1 UNK          0.0000
   34 H       107.9133  117.2263  145.0092 H        1 UNK          0.0000
   35 N       111.6707  127.0410  136.4824 N.ar     1 UNK          0.0000
   36 N       106.2109  114.4606  145.8333 N.am     1 UNK          0.0000
   37 H       105.6675  114.1086  146.5956 H        1 UNK          0.0000
   38 N       112.0048  127.2606  134.1977 N.pl3    1 UNK          0.0000
   39 H       112.1448  128.2446  134.3760 H        1 UNK          0.0000
   40 H       112.0544  126.8833  133.2649 H        1 UNK          0.0000
   41 C       112.4080  121.6552  137.7680 C.3      1 UNK          0.0000
   42 H       113.1675  122.4150  137.6055 H        1 UNK          0.0000
   43 C       111.7385  121.8430  139.1417 C.3      1 UNK          0.0000
   44 H       111.6726  122.9150  139.3138 H        1 UNK          0.0000
   45 C       111.2027  121.7508  136.8058 C.3      1 UNK          0.0000
   46 H       111.1805  120.8632  136.1660 H        1 UNK          0.0000
   47 C       110.3178  121.2761  138.9438 C.3      1 UNK          0.0000
   48 H       110.3548  120.1883  138.9590 H        1 UNK          0.0000
   49 C       109.3146  121.7006  140.0359 C.3      1 UNK          0.0000
   50 H       108.3518  121.2153  139.8896 H        1 UNK          0.0000
   51 H       109.6944  121.4073  141.0169 H        1 UNK          0.0000
   52 C       111.5531  124.2364  136.3022 C.ar     1 UNK          0.0000
   53 C       111.3328  122.9750  134.5538 C.ar     1 UNK          0.0000
   54 H       111.2252  122.0689  133.9886 H        1 UNK          0.0000
   55 C       111.6060  124.9852  135.1241 C.ar     1 UNK          0.0000
   56 C       108.3049  118.3785  142.3570 C.3      1 UNK          0.0000
   57 H       107.4943  118.4285  143.0946 H        1 UNK          0.0000
   58 C       109.3437  117.3585  142.8444 C.3      1 UNK          0.0000
   59 H       109.6083  117.5641  143.8974 H        1 UNK          0.0000
   60 H       110.2754  117.4480  142.2816 H        1 UNK          0.0000
   61 C       108.8828  119.7733  142.2337 C.3      1 UNK          0.0000
   62 H       109.3211  119.8937  141.2301 H        1 UNK          0.0000
   63 C       108.9670  115.2485  141.5104 C.ar     1 UNK          0.0000
   64 C       107.7961  120.8403  142.4797 C.3      1 UNK          0.0000
   65 H       108.2926  121.8125  142.4202 H        1 UNK          0.0000
   66 C       107.8102  115.5584  143.6884 C.ar     1 UNK          0.0000
   67 C       108.3957  113.9047  141.4328 C.ar     1 UNK          0.0000
   68 C       107.2504  114.2032  143.5768 C.ar     1 UNK          0.0000
   69 C       111.7593  126.4293  135.2484 C.ar     1 UNK          0.0000
   70 C       106.7565  120.9191  141.3587 C.3      1 UNK          0.0000
   71 H       106.3337  119.9272  141.2132 H        1 UNK          0.0000
   72 H       107.2850  121.1937  140.4376 H        1 UNK          0.0000
   73 C       109.7911  115.7298  140.4772 C.ar     1 UNK          0.0000
   74 H       110.2348  116.7262  140.4915 H        1 UNK          0.0000
   75 C       108.7067  113.0936  140.2818 C.ar     1 UNK          0.0000
   76 H       108.2980  112.0890  140.2157 H        1 UNK          0.0000
   77 C       110.1196  114.8946  139.3725 C.ar     1 UNK          0.0000
   78 C       109.5300  113.5957  139.2567 C.ar     1 UNK          0.0000
   79 C       111.5694  126.1977  137.5677 C.ar     1 UNK          0.0000
   80 H       111.3825  126.6584  138.5390 H        1 UNK          0.0000
   81 C       106.4363  113.6560  144.6937 C.2      1 UNK          0.0000
   82 C       106.7716  115.7540  145.9087 C.2      1 UNK          0.0000
   83 C       111.0924  115.4228  138.3811 C.3      1 UNK          0.0000
   84 H       110.5707  115.5064  137.4185 H        1 UNK          0.0000
   85 H       111.4411  116.4195  138.6856 H        1 UNK          0.0000
   86 H       111.9747  114.7905  138.2306 H        1 UNK          0.0000
   87 C       109.7782  112.7388  138.0087 C.3      1 UNK          0.0000
   88 H       110.8501  112.6054  137.8224 H        1 UNK          0.0000
   89 H       109.3332  113.2124  137.1260 H        1 UNK          0.0000
   90 H       109.3276  111.7449  138.1064 H        1 UNK          0.0000
@<TRIPOS>BOND
     1     1     8   1 
     2     1    11   1 
     3     1    17   1 
     4     1    19   1 
     5     2    11   1 
     6     2    14   1 
     7     2    21   1 
     8     2    24   1 
     9     3    45   1 
    10     3    47   1 
    11     4     5   1 
    12     4    41   1 
    13     6     7   1 
    14     6    43   1 
    15     8    49   1 
    16     9    10   1 
    17     9    56   1 
    18    12    13   1 
    19    12    61   1 
    20    14    70   1 
    21    15    16   1 
    22    15    64   1 
    23    17    18   1 
    24    19    20   1 
    25    21    22   1 
    26    23    81   2 
    27    24    25   1 
    28    26    82   2 
    29    27    45   1 
    30    27    52   1 
    31    27    53   1 
    32    28    58   1 
    33    28    63   ar
    34    28    66   ar
    35    29    53   2 
    36    29    55   1 
    37    30    52   ar
    38    30    79   ar
    39    31    32   1 
    40    31    67   ar
    41    31    68   ar
    42    33    34   1 
    43    33    66   1 
    44    33    82   am
    45    35    69   ar
    46    35    79   ar
    47    36    37   1 
    48    36    81   am
    49    36    82   am
    50    38    39   1 
    51    38    40   1 
    52    38    69   1 
    53    41    42   1 
    54    41    43   1 
    55    41    45   1 
    56    43    44   1 
    57    43    47   1 
    58    45    46   1 
    59    47    48   1 
    60    47    49   1 
    61    49    50   1 
    62    49    51   1 
    63    52    55   ar
    64    53    54   1 
    65    55    69   ar
    66    56    57   1 
    67    56    58   1 
    68    56    61   1 
    69    58    59   1 
    70    58    60   1 
    71    61    62   1 
    72    61    64   1 
    73    63    67   ar
    74    63    73   ar
    75    64    65   1 
    76    64    70   1 
    77    66    68   ar
    78    67    75   ar
    79    68    81   1 
    80    70    71   1 
    81    70    72   1 
    82    73    74   1 
    83    73    77   ar
    84    75    76   1 
    85    75    78   ar
    86    77    78   ar
    87    77    83   1 
    88    78    87   1 
    89    79    80   1 
    90    83    84   1 
    91    83    85   1 
    92    83    86   1 
    93    87    88   1 
    94    87    89   1 
    95    87    90   1 
 
