@<TRIPOS>COMMENT
   inp8.mol2               9    of   10
                  SCORE =  -486.1401
               dG-SCORE =   -12.1491
      LIGAND_EFFICIENCY =    -0.9172
  NUMBER_OF_HEAVY_ATOMS =         53
                    ASA =  -311.4731
                    ELE =     0.0000
                    HYD =  -162.0881
                    VDW =   -12.5789
                   RMSD =    37.9316
 MOLECULAR_WEIGHT = 789.59
@<TRIPOS>MOLECULE
inp8.mol2                                                                       
   90   95    0    0    0
SMALL       
GASTEIGER      
 
@<TRIPOS>ATOM
    1 P       113.5944  118.1660  135.2412 P.3      1 UNK          0.0000
    2 P       115.1036  119.6071  137.0769 P.3      1 UNK          0.0000
    3 O       115.6150  115.6318  132.8962 O.3      1 UNK          0.0000
    4 O       117.7949  115.3365  130.5560 O.3      1 UNK          0.0000
    5 H       117.7350  114.6308  129.8888 H        1 UNK          0.0000
    6 O       117.5929  118.0233  131.1999 O.3      1 UNK          0.0000
    7 H       118.3464  117.3998  131.2293 H        1 UNK          0.0000
    8 O       114.6432  117.7851  134.0668 O.3      1 UNK          0.0000
    9 O       111.4956  125.5041  137.1052 O.3      1 UNK          0.0000
   10 H       110.6077  125.6355  137.5107 H        1 UNK          0.0000
   11 O       113.8649  119.4614  136.1349 O.3      1 UNK          0.0000
   12 O       113.6685  124.5983  135.8583 O.3      1 UNK          0.0000
   13 H       114.6254  124.7702  135.7649 H        1 UNK          0.0000
   14 O       115.9289  120.9556  137.0181 O.3      1 UNK          0.0000
   15 O       113.1507  122.0398  138.6214 O.3      1 UNK          0.0000
   16 H       113.4570  122.5618  139.3915 H        1 UNK          0.0000
   17 O       112.3079  118.6307  134.4597 O.3      1 UNK          0.0000
   18 H       112.2323  118.0495  133.6886 H        1 UNK          0.0000
   19 O       113.4846  116.8572  136.1433 O.3      1 UNK          0.0000
   20 H       113.7036  116.1084  135.5569 H        1 UNK          0.0000
   21 O       114.4448  119.3919  138.5107 O.3      1 UNK          0.0000
   22 H       113.6811  118.7983  138.3922 H        1 UNK          0.0000
   23 O       105.9148  123.1815  139.9105 O.2      1 UNK          0.0000
   24 O       115.9606  118.3626  136.7374 O.3      1 UNK          0.0000
   25 H       115.3167  117.6465  136.9455 H        1 UNK          0.0000
   26 O       109.3770  120.4626  140.8757 O.2      1 UNK          0.0000
   27 N       114.2917  114.5935  131.3550 N.ar     1 UNK          0.0000
   28 N       109.6188  123.1140  136.8925 N.ar     1 UNK          0.0000
   29 N       112.4256  113.2905  131.0702 N.ar     1 UNK          0.0000
   30 N       113.1436  116.8102  131.0656 N.ar     1 UNK          0.0000
   31 N       106.8224  123.6988  137.3205 N.ar     1 UNK          0.0000
   32 H       105.8248  123.8184  137.4269 H        1 UNK          0.0000
   33 N       109.4855  121.6019  138.9322 N.am     1 UNK          0.0000
   34 H       110.4182  121.2390  138.8083 H        1 UNK          0.0000
   35 N       110.8096  116.5950  130.3027 N.ar     1 UNK          0.0000
   36 N       107.5762  121.7733  140.4771 N.am     1 UNK          0.0000
   37 H       107.1181  121.4856  141.3440 H        1 UNK          0.0000
   38 N       109.8517  114.4574  129.9279 N.pl3    1 UNK          0.0000
   39 H       109.0500  114.9032  129.5022 H        1 UNK          0.0000
   40 H       109.9016  113.4512  129.9932 H        1 UNK          0.0000
   41 C       116.4799  115.8989  130.7213 C.3      1 UNK          0.0000
   42 H       115.9927  116.0498  129.7523 H        1 UNK          0.0000
   43 C       116.5046  117.2008  131.5515 C.3      1 UNK          0.0000
   44 H       115.5596  117.7368  131.4154 H        1 UNK          0.0000
   45 C       115.6909  114.9389  131.6451 C.3      1 UNK          0.0000
   46 H       116.2537  114.0059  131.7656 H        1 UNK          0.0000
   47 C       116.5831  116.6788  132.9849 C.3      1 UNK          0.0000
   48 H       117.5866  116.2863  133.1935 H        1 UNK          0.0000
   49 C       116.1000  117.6311  134.1006 C.3      1 UNK          0.0000
   50 H       116.3662  117.2134  135.0673 H        1 UNK          0.0000
   51 H       116.6436  118.5725  134.0074 H        1 UNK          0.0000
   52 C       113.2316  115.4319  131.1174 C.ar     1 UNK          0.0000
   53 C       113.7421  113.3034  131.3340 C.ar     1 UNK          0.0000
   54 H       114.3523  112.4272  131.5209 H        1 UNK          0.0000
   55 C       112.1375  114.5963  130.8525 C.ar     1 UNK          0.0000
   56 C       111.9012  124.1416  137.3670 C.3      1 UNK          0.0000
   57 H       111.8125  123.9804  138.4499 H        1 UNK          0.0000
   58 C       111.0941  122.9642  136.7160 C.3      1 UNK          0.0000
   59 H       111.4412  122.0296  137.1727 H        1 UNK          0.0000
   60 H       111.3634  122.8880  135.6566 H        1 UNK          0.0000
   61 C       113.4007  123.9694  137.1355 C.3      1 UNK          0.0000
   62 H       113.8767  124.5808  137.9115 H        1 UNK          0.0000
   63 C       108.9292  124.0538  136.0906 C.ar     1 UNK          0.0000
   64 C       113.8208  122.4516  137.4129 C.3      1 UNK          0.0000
   65 H       113.3860  121.8466  136.6190 H        1 UNK          0.0000
   66 C       108.9003  122.4874  138.0135 C.ar     1 UNK          0.0000
   67 C       107.5095  124.3204  136.2353 C.ar     1 UNK          0.0000
   68 C       107.5537  122.9726  138.2499 C.ar     1 UNK          0.0000
   69 C       110.9107  115.2139  130.3748 C.ar     1 UNK          0.0000
   70 C       115.4037  122.2437  137.3687 C.3      1 UNK          0.0000
   71 H       115.9070  122.6161  138.2595 H        1 UNK          0.0000
   72 H       115.7575  122.9017  136.5722 H        1 UNK          0.0000
   73 C       109.6442  124.8517  135.1148 C.ar     1 UNK          0.0000
   74 H       110.7149  124.7285  134.9890 H        1 UNK          0.0000
   75 C       106.8249  125.2046  135.3898 C.ar     1 UNK          0.0000
   76 H       105.7486  125.3348  135.4376 H        1 UNK          0.0000
   77 C       108.9821  125.7909  134.3373 C.ar     1 UNK          0.0000
   78 C       107.5571  125.9671  134.4161 C.ar     1 UNK          0.0000
   79 C       111.9649  117.3130  130.5578 C.ar     1 UNK          0.0000
   80 H       111.9585  118.3703  130.3292 H        1 UNK          0.0000
   81 C       106.9413  122.6664  139.6216 C.2      1 UNK          0.0000
   82 C       108.8291  121.2312  140.1450 C.2      1 UNK          0.0000
   83 C       109.8677  126.4860  133.3163 C.3      1 UNK          0.0000
   84 H       109.4883  126.2689  132.3208 H        1 UNK          0.0000
   85 H       109.8718  127.5574  133.4566 H        1 UNK          0.0000
   86 H       110.9069  126.1425  133.3614 H        1 UNK          0.0000
   87 C       106.7709  126.8428  133.4730 C.3      1 UNK          0.0000
   88 H       106.8797  126.5078  132.4388 H        1 UNK          0.0000
   89 H       107.1360  127.8689  133.4831 H        1 UNK          0.0000
   90 H       105.7001  126.8639  133.7084 H        1 UNK          0.0000
@<TRIPOS>BOND
     1     1     8   1 
     2     1    11   1 
     3     1    17   1 
     4     1    19   1 
     5     2    11   1 
     6     2    14   1 
     7     2    21   1 
     8     2    24   1 
     9     3    45   1 
    10     3    47   1 
    11     4     5   1 
    12     4    41   1 
    13     6     7   1 
    14     6    43   1 
    15     8    49   1 
    16     9    10   1 
    17     9    56   1 
    18    12    13   1 
    19    12    61   1 
    20    14    70   1 
    21    15    16   1 
    22    15    64   1 
    23    17    18   1 
    24    19    20   1 
    25    21    22   1 
    26    23    81   2 
    27    24    25   1 
    28    26    82   2 
    29    27    45   1 
    30    27    52   1 
    31    27    53   1 
    32    28    58   1 
    33    28    63   ar
    34    28    66   ar
    35    29    53   2 
    36    29    55   1 
    37    30    52   ar
    38    30    79   ar
    39    31    32   1 
    40    31    67   ar
    41    31    68   ar
    42    33    34   1 
    43    33    66   1 
    44    33    82   am
    45    35    69   ar
    46    35    79   ar
    47    36    37   1 
    48    36    81   am
    49    36    82   am
    50    38    39   1 
    51    38    40   1 
    52    38    69   1 
    53    41    42   1 
    54    41    43   1 
    55    41    45   1 
    56    43    44   1 
    57    43    47   1 
    58    45    46   1 
    59    47    48   1 
    60    47    49   1 
    61    49    50   1 
    62    49    51   1 
    63    52    55   ar
    64    53    54   1 
    65    55    69   ar
    66    56    57   1 
    67    56    58   1 
    68    56    61   1 
    69    58    59   1 
    70    58    60   1 
    71    61    62   1 
    72    61    64   1 
    73    63    67   ar
    74    63    73   ar
    75    64    65   1 
    76    64    70   1 
    77    66    68   ar
    78    67    75   ar
    79    68    81   1 
    80    70    71   1 
    81    70    72   1 
    82    73    74   1 
    83    73    77   ar
    84    75    76   1 
    85    75    78   ar
    86    77    78   ar
    87    77    83   1 
    88    78    87   1 
    89    79    80   1 
    90    83    84   1 
    91    83    85   1 
    92    83    86   1 
    93    87    88   1 
    94    87    89   1 
    95    87    90   1 
 
