@<TRIPOS>COMMENT
   inp8.mol2              10    of   10
                  SCORE =  -351.7541
               dG-SCORE =    -9.9215
      LIGAND_EFFICIENCY =    -0.6637
  NUMBER_OF_HEAVY_ATOMS =         53
                    ASA =  -126.8596
                    ELE =     0.0000
                    HYD =  -224.8944
                    VDW =     0.0000
                   RMSD =    37.8056
 MOLECULAR_WEIGHT = 789.59
@<TRIPOS>MOLECULE
inp8.mol2                                                                       
   90   95    0    0    0
SMALL       
GASTEIGER      
 
@<TRIPOS>ATOM
    1 P       113.5614  118.6029  134.9860 P.3      1 UNK          0.0000
    2 P       114.7792  119.9552  137.2543 P.3      1 UNK          0.0000
    3 O       115.2143  115.8356  133.0046 O.3      1 UNK          0.0000
    4 O       117.4527  115.2088  130.6121 O.3      1 UNK          0.0000
    5 H       117.4748  114.8602  129.7026 H        1 UNK          0.0000
    6 O       117.5169  117.8970  131.1581 O.3      1 UNK          0.0000
    7 H       118.1572  117.2260  130.8555 H        1 UNK          0.0000
    8 O       114.5676  118.3800  133.7440 O.3      1 UNK          0.0000
    9 O       111.1703  125.3731  137.6763 O.3      1 UNK          0.0000
   10 H       110.3131  125.3993  138.1541 H        1 UNK          0.0000
   11 O       113.9643  119.9004  135.8605 O.3      1 UNK          0.0000
   12 O       113.4683  124.7725  136.3369 O.3      1 UNK          0.0000
   13 H       114.4212  124.7275  136.1254 H        1 UNK          0.0000
   14 O       115.8063  121.2052  137.2743 O.3      1 UNK          0.0000
   15 O       113.4088  121.7891  138.5052 O.3      1 UNK          0.0000
   16 H       113.3734  122.3919  139.2750 H        1 UNK          0.0000
   17 O       112.1014  118.8664  134.3662 O.3      1 UNK          0.0000
   18 H       111.8338  118.0702  133.8747 H        1 UNK          0.0000
   19 O       113.4729  117.2636  135.8734 O.3      1 UNK          0.0000
   20 H       113.2841  116.5139  135.2839 H        1 UNK          0.0000
   21 O       113.7995  120.0423  138.5274 O.3      1 UNK          0.0000
   22 H       113.1628  119.3088  138.4844 H        1 UNK          0.0000
   23 O       105.3064  122.5702  139.4994 O.2      1 UNK          0.0000
   24 O       115.6421  118.6098  137.3736 O.3      1 UNK          0.0000
   25 H       115.0332  117.8484  137.3696 H        1 UNK          0.0000
   26 O       109.1405  120.8177  141.0363 O.2      1 UNK          0.0000
   27 N       114.0224  114.6074  131.3640 N.ar     1 UNK          0.0000
   28 N       109.4029  123.2889  137.0692 N.ar     1 UNK          0.0000
   29 N       112.2173  113.3064  130.8252 N.ar     1 UNK          0.0000
   30 N       112.9048  116.7812  130.9807 N.ar     1 UNK          0.0000
   31 N       106.5842  123.7282  137.2737 N.ar     1 UNK          0.0000
   32 H       105.5749  123.8436  137.3461 H        1 UNK          0.0000
   33 N       109.2692  121.9973  139.1415 N.am     1 UNK          0.0000
   34 H       110.2628  121.8130  139.1157 H        1 UNK          0.0000
   35 N       110.5987  116.5515  130.2685 N.ar     1 UNK          0.0000
   36 N       107.1893  121.6644  140.3251 N.am     1 UNK          0.0000
   37 H       106.6965  121.2628  141.1127 H        1 UNK          0.0000
   38 N       109.6203  114.4335  130.0000 N.pl3    1 UNK          0.0000
   39 H       108.8569  114.8825  129.5158 H        1 UNK          0.0000
   40 H       109.7772  113.4487  129.8378 H        1 UNK          0.0000
   41 C       116.1761  115.8320  130.8087 C.3      1 UNK          0.0000
   42 H       115.6394  115.9456  129.8581 H        1 UNK          0.0000
   43 C       116.3266  117.1911  131.5172 C.3      1 UNK          0.0000
   44 H       115.4472  117.8065  131.2870 H        1 UNK          0.0000
   45 C       115.3573  114.9952  131.8342 C.3      1 UNK          0.0000
   46 H       115.9023  114.0796  132.0980 H        1 UNK          0.0000
   47 C       116.2772  116.8028  132.9978 C.3      1 UNK          0.0000
   48 H       117.2264  116.3374  133.2946 H        1 UNK          0.0000
   49 C       115.9455  117.9968  133.9269 C.3      1 UNK          0.0000
   50 H       116.0976  117.6871  134.9687 H        1 UNK          0.0000
   51 H       116.6240  118.8333  133.7182 H        1 UNK          0.0000
   52 C       112.9873  115.4360  131.0288 C.ar     1 UNK          0.0000
   53 C       113.4987  113.3126  131.2230 C.ar     1 UNK          0.0000
   54 H       114.0928  112.4316  131.4346 H        1 UNK          0.0000
   55 C       111.9307  114.6247  130.7142 C.ar     1 UNK          0.0000
   56 C       111.7108  124.0628  137.8673 C.3      1 UNK          0.0000
   57 H       111.5957  123.7846  138.9241 H        1 UNK          0.0000
   58 C       110.8895  123.0570  137.0073 C.3      1 UNK          0.0000
   59 H       111.1192  122.0368  137.3470 H        1 UNK          0.0000
   60 H       111.2426  123.0877  135.9692 H        1 UNK          0.0000
   61 C       113.2393  124.0323  137.5389 C.3      1 UNK          0.0000
   62 H       113.7810  124.5131  138.3659 H        1 UNK          0.0000
   63 C       108.7251  124.1518  136.1569 C.ar     1 UNK          0.0000
   64 C       113.7919  122.5792  137.3801 C.3      1 UNK          0.0000
   65 H       113.3535  122.1367  136.4763 H        1 UNK          0.0000
   66 C       108.6592  122.7536  138.1466 C.ar     1 UNK          0.0000
   67 C       107.3203  124.3491  136.2635 C.ar     1 UNK          0.0000
   68 C       107.2652  122.9799  138.2335 C.ar     1 UNK          0.0000
   69 C       110.7088  115.2053  130.3251 C.ar     1 UNK          0.0000
   70 C       115.3370  122.5625  137.1995 C.3      1 UNK          0.0000
   71 H       115.8177  123.1811  137.9671 H        1 UNK          0.0000
   72 H       115.5978  122.9804  136.2191 H        1 UNK          0.0000
   73 C       109.4162  124.8277  135.1199 C.ar     1 UNK          0.0000
   74 H       110.4900  124.7325  134.9992 H        1 UNK          0.0000
   75 C       106.6419  125.1909  135.3640 C.ar     1 UNK          0.0000
   76 H       105.5701  125.3466  135.4632 H        1 UNK          0.0000
   77 C       108.7355  125.6699  134.2205 C.ar     1 UNK          0.0000
   78 C       107.3410  125.8533  134.3423 C.ar     1 UNK          0.0000
   79 C       111.7012  117.2691  130.5988 C.ar     1 UNK          0.0000
   80 H       111.6078  118.3527  130.5517 H        1 UNK          0.0000
   81 C       106.5040  122.4019  139.3836 C.2      1 UNK          0.0000
   82 C       108.5512  121.4676  140.2019 C.2      1 UNK          0.0000
   83 C       109.5251  126.3777  133.1179 C.3      1 UNK          0.0000
   84 H       109.1547  126.0968  132.1237 H        1 UNK          0.0000
   85 H       109.4436  127.4681  133.2116 H        1 UNK          0.0000
   86 H       110.5942  126.1343  133.1555 H        1 UNK          0.0000
   87 C       106.5762  126.7622  133.3795 C.3      1 UNK          0.0000
   88 H       106.6730  126.4139  132.3428 H        1 UNK          0.0000
   89 H       106.9509  127.7928  133.4243 H        1 UNK          0.0000
   90 H       105.5039  126.7951  133.6107 H        1 UNK          0.0000
@<TRIPOS>BOND
     1     1     8   1 
     2     1    11   1 
     3     1    17   1 
     4     1    19   1 
     5     2    11   1 
     6     2    14   1 
     7     2    21   1 
     8     2    24   1 
     9     3    45   1 
    10     3    47   1 
    11     4     5   1 
    12     4    41   1 
    13     6     7   1 
    14     6    43   1 
    15     8    49   1 
    16     9    10   1 
    17     9    56   1 
    18    12    13   1 
    19    12    61   1 
    20    14    70   1 
    21    15    16   1 
    22    15    64   1 
    23    17    18   1 
    24    19    20   1 
    25    21    22   1 
    26    23    81   2 
    27    24    25   1 
    28    26    82   2 
    29    27    45   1 
    30    27    52   1 
    31    27    53   1 
    32    28    58   1 
    33    28    63   ar
    34    28    66   ar
    35    29    53   2 
    36    29    55   1 
    37    30    52   ar
    38    30    79   ar
    39    31    32   1 
    40    31    67   ar
    41    31    68   ar
    42    33    34   1 
    43    33    66   1 
    44    33    82   am
    45    35    69   ar
    46    35    79   ar
    47    36    37   1 
    48    36    81   am
    49    36    82   am
    50    38    39   1 
    51    38    40   1 
    52    38    69   1 
    53    41    42   1 
    54    41    43   1 
    55    41    45   1 
    56    43    44   1 
    57    43    47   1 
    58    45    46   1 
    59    47    48   1 
    60    47    49   1 
    61    49    50   1 
    62    49    51   1 
    63    52    55   ar
    64    53    54   1 
    65    55    69   ar
    66    56    57   1 
    67    56    58   1 
    68    56    61   1 
    69    58    59   1 
    70    58    60   1 
    71    61    62   1 
    72    61    64   1 
    73    63    67   ar
    74    63    73   ar
    75    64    65   1 
    76    64    70   1 
    77    66    68   ar
    78    67    75   ar
    79    68    81   1 
    80    70    71   1 
    81    70    72   1 
    82    73    74   1 
    83    73    77   ar
    84    75    76   1 
    85    75    78   ar
    86    77    78   ar
    87    77    83   1 
    88    78    87   1 
    89    79    80   1 
    90    83    84   1 
    91    83    85   1 
    92    83    86   1 
    93    87    88   1 
    94    87    89   1 
    95    87    90   1 
 
