inp11.mol2
     Hgene          

 22 23  0  0  0  0               V2000
  -52.8790    8.7490   -9.5700 P   0  0  2  0  0
  -49.7400   11.6770  -10.2280 O   0  0  0  0  0
  -51.6250    9.5140  -10.2340 O   0  0  0  0  0
  -54.3230    8.7570  -10.2670 O   0  0  0  0  0
  -53.2890   10.2970   -9.5090 O   0  0  0  0  0
  -52.6630    7.9450  -10.9410 O   0  0  0  0  0
  -52.8530   15.4850  -10.2750 O   0  0  0  0  0
  -48.9240   13.9050  -10.2620 N   0  0  0  0  0
  -52.3080   17.4280   -9.3500 N   0  0  0  0  0
  -47.8620   10.2990  -10.0060 C   0  0  0  0  0
  -47.4130   11.7770  -10.2070 C   0  0  0  0  0
  -49.3540   10.3100  -10.4370 C   0  0  0  0  0
  -48.6860   12.5080  -10.7250 C   0  0  0  0  0
  -47.6040    9.8170   -8.5510 C   0  0  0  0  0
  -46.2220   11.8980  -11.1920 C   0  0  0  0  0
  -50.3160    9.3790   -9.6570 C   0  0  0  0  0
  -50.2400   14.4070  -10.2600 C   0  0  0  0  0
  -47.8910   14.7610   -9.8350 C   0  0  0  0  0
  -50.5340   15.7110   -9.8130 C   0  0  0  0  0
  -48.1730   16.0610   -9.3830 C   0  0  0  0  0
  -49.4890   16.5390   -9.3670 C   0  0  0  0  0
  -51.9620   16.1840   -9.8320 C   0  0  0  0  0
  1  3  1  0
  1  4  1  0
  1  5  1  0
  1  6  1  0
  2 12  1  0
  2 13  1  0
  3 16  1  0
  7 22  2  0
  8 13  1  0
  8 17  4  0
  8 18  4  0
  9 22  1  0
 10 11  1  0
 10 12  1  0
 10 14  1  0
 11 13  1  0
 11 15  1  0
 12 16  1  0
 17 19  4  0
 18 20  4  0
 19 21  4  0
 19 22  1  0
 20 21  4  0
M  END
$$$$
