inp11.mol2
     Hgene          

 31 33  0  0  0  0               V2000
   97.1070   79.1796   68.8337 P   0  0  1  0  0
   94.6245   76.3541   74.5690 O   0  0  0  0  0
   97.8535   78.0909   74.1277 O   0  0  0  0  0
   95.4669   79.2328   72.8006 O   0  0  0  0  0
   96.3192   78.6959   70.1539 O   0  0  0  0  0
   91.8463   73.2229   77.8884 O   0  0  0  0  0
   95.9490   71.6416   76.9709 O   0  0  0  0  0
   96.0398   79.7034   67.7566 O   0  0  0  0  0
   98.1078   80.3729   69.2254 O   0  0  0  0  0
   97.9232   77.9407   68.2191 O   0  0  0  0  0
   95.4808   76.2881   77.2607 N   0  0  0  0  0
   92.7634   75.9054   77.9206 N   0  0  0  0  0
   95.7512   73.8643   77.1361 N   0  0  0  0  0
   93.8736   72.3659   77.4209 N   0  0  0  0  0
   95.7356   77.1975   74.8983 C   0  0  0  0  0
   96.4408   76.6391   76.1667 C   0  0  0  0  0
   96.7234   77.3302   73.6983 C   0  0  0  0  0
   94.7768   77.2896   77.9681 C   0  0  0  0  0
   94.9584   74.9826   77.3478 C   0  0  0  0  0
   96.0593   77.9823   72.4460 C   0  0  0  0  0
   93.4009   77.1026   78.2672 C   0  0  0  0  0
   93.5829   74.8091   77.6260 C   0  0  0  0  0
   95.4195   78.4742   78.3797 C   0  0  0  0  0
   97.0536   78.1806   71.2741 C   0  0  0  0  0
   92.6832   78.0993   78.9484 C   0  0  0  0  0
   94.6992   79.4727   79.0646 C   0  0  0  0  0
   93.3248   79.2870   79.3472 C   0  0  0  0  0
   93.0213   73.4258   77.6582 C   0  0  0  0  0
   95.2158   72.5854   77.1686 C   0  0  0  0  0
   95.4234   80.7478   79.5005 C   0  0  0  0  0
   92.5218   80.3537   80.0912 C   0  0  0  0  0
  1  5  1  0
  1  8  1  0
  1  9  1  0
  1 10  1  0
  2 15  1  0
  3 17  1  0
  4 20  1  0
  5 24  1  0
  6 28  2  0
  7 29  2  0
 11 16  1  0
 11 18  1  0
 11 19  1  0
 12 21  1  0
 12 22  1  0
 13 19  1  0
 13 29  1  0
 14 28  1  0
 14 29  1  0
 15 16  1  0
 15 17  1  0
 17 20  1  0
 18 21  4  0
 18 23  4  0
 19 22  2  0
 20 24  1  0
 21 25  4  0
 22 28  1  0
 23 26  4  0
 25 27  4  0
 26 27  4  0
 26 30  1  0
 27 31  1  0
M  END
$$$$
