@<TRIPOS>COMMENT
   inp11.mol2              3    of   10
                  SCORE =  -306.8931
               dG-SCORE =    -7.7201
      LIGAND_EFFICIENCY =    -0.9900
  NUMBER_OF_HEAVY_ATOMS =         31
                    ASA =  -205.8967
                    ELE =     0.0000
                    HYD =  -100.9964
                    VDW =     0.0000
                   RMSD =    28.8154
 MOLECULAR_WEIGHT = 459.37
@<TRIPOS>MOLECULE
inp11.mol2                                                                      
   55   57    0    0    0
SMALL       
GASTEIGER      
 
@<TRIPOS>ATOM
    1 P        97.1070   79.1796   68.8337 P.3      1 UNK          0.0000
    2 O        94.6245   76.3541   74.5690 O.3      1 UNK          0.0000
    3 H        94.2690   76.6605   73.7107 H        1 UNK          0.0000
    4 O        97.8535   78.0909   74.1277 O.3      1 UNK          0.0000
    5 H        97.9254   78.8760   73.5509 H        1 UNK          0.0000
    6 O        95.4669   79.2328   72.8006 O.3      1 UNK          0.0000
    7 H        95.3776   79.7447   71.9729 H        1 UNK          0.0000
    8 O        96.3192   78.6959   70.1539 O.3      1 UNK          0.0000
    9 O        91.8463   73.2229   77.8884 O.2      1 UNK          0.0000
   10 O        95.9490   71.6416   76.9709 O.2      1 UNK          0.0000
   11 O        96.0398   79.7034   67.7566 O.3      1 UNK          0.0000
   12 H        95.5563   80.4637   68.1229 H        1 UNK          0.0000
   13 O        98.1078   80.3729   69.2254 O.3      1 UNK          0.0000
   14 H        98.5887   80.6571   68.4284 H        1 UNK          0.0000
   15 O        97.9232   77.9407   68.2191 O.3      1 UNK          0.0000
   16 H        97.2943   77.2755   67.8900 H        1 UNK          0.0000
   17 N        95.4808   76.2881   77.2607 N.pl3    1 UNK          0.0000
   18 N        92.7634   75.9054   77.9206 N.pl3    1 UNK          0.0000
   19 H        91.7544   75.7906   77.9838 H        1 UNK          0.0000
   20 N        95.7512   73.8643   77.1361 N.am     1 UNK          0.0000
   21 H        96.7431   73.9548   76.9592 H        1 UNK          0.0000
   22 N        93.8736   72.3659   77.4209 N.am     1 UNK          0.0000
   23 H        93.5189   71.4182   77.4384 H        1 UNK          0.0000
   24 C        95.7356   77.1975   74.8983 C.3      1 UNK          0.0000
   25 H        95.3641   78.2026   75.1379 H        1 UNK          0.0000
   26 C        96.4408   76.6391   76.1667 C.3      1 UNK          0.0000
   27 H        97.1734   77.3743   76.5284 H        1 UNK          0.0000
   28 H        97.0207   75.7523   75.8787 H        1 UNK          0.0000
   29 C        96.7234   77.3302   73.6983 C.3      1 UNK          0.0000
   30 H        97.0595   76.3252   73.4107 H        1 UNK          0.0000
   31 C        94.7768   77.2896   77.9681 C.ar     1 UNK          0.0000
   32 C        94.9584   74.9826   77.3478 C.2      1 UNK          0.0000
   33 C        96.0593   77.9823   72.4460 C.3      1 UNK          0.0000
   34 H        95.2757   77.3061   72.0830 H        1 UNK          0.0000
   35 C        93.4009   77.1026   78.2672 C.ar     1 UNK          0.0000
   36 C        93.5829   74.8091   77.6260 C.2      1 UNK          0.0000
   37 C        95.4195   78.4742   78.3797 C.ar     1 UNK          0.0000
   38 H        96.4768   78.6297   78.1830 H        1 UNK          0.0000
   39 C        97.0536   78.1806   71.2741 C.3      1 UNK          0.0000
   40 H        97.5209   77.2231   71.0075 H        1 UNK          0.0000
   41 H        97.8442   78.8853   71.5625 H        1 UNK          0.0000
   42 C        92.6832   78.0993   78.9484 C.ar     1 UNK          0.0000
   43 H        91.6299   77.9544   79.1815 H        1 UNK          0.0000
   44 C        94.6992   79.4727   79.0646 C.ar     1 UNK          0.0000
   45 C        93.3248   79.2870   79.3472 C.ar     1 UNK          0.0000
   46 C        93.0213   73.4258   77.6582 C.2      1 UNK          0.0000
   47 C        95.2158   72.5854   77.1686 C.2      1 UNK          0.0000
   48 C        95.4234   80.7478   79.5005 C.3      1 UNK          0.0000
   49 H        94.9306   81.6418   79.0984 H        1 UNK          0.0000
   50 H        96.4647   80.7680   79.1534 H        1 UNK          0.0000
   51 H        95.4421   80.8360   80.5940 H        1 UNK          0.0000
   52 C        92.5218   80.3537   80.0912 C.3      1 UNK          0.0000
   53 H        91.4860   80.0378   80.2689 H        1 UNK          0.0000
   54 H        92.9660   80.5743   81.0705 H        1 UNK          0.0000
   55 H        92.4835   81.2897   79.5197 H        1 UNK          0.0000
@<TRIPOS>BOND
     1     1     8   1 
     2     1    11   1 
     3     1    13   1 
     4     1    15   1 
     5     2     3   1 
     6     2    24   1 
     7     4     5   1 
     8     4    29   1 
     9     6     7   1 
    10     6    33   1 
    11     8    39   1 
    12     9    46   2 
    13    10    47   2 
    14    11    12   1 
    15    13    14   1 
    16    15    16   1 
    17    17    26   1 
    18    17    31   1 
    19    17    32   1 
    20    18    19   1 
    21    18    35   1 
    22    18    36   1 
    23    20    21   1 
    24    20    32   1 
    25    20    47   am
    26    22    23   1 
    27    22    46   am
    28    22    47   am
    29    24    25   1 
    30    24    26   1 
    31    24    29   1 
    32    26    27   1 
    33    26    28   1 
    34    29    30   1 
    35    29    33   1 
    36    31    35   ar
    37    31    37   ar
    38    32    36   2 
    39    33    34   1 
    40    33    39   1 
    41    35    42   ar
    42    36    46   1 
    43    37    38   1 
    44    37    44   ar
    45    39    40   1 
    46    39    41   1 
    47    42    43   1 
    48    42    45   ar
    49    44    45   ar
    50    44    48   1 
    51    45    52   1 
    52    48    49   1 
    53    48    50   1 
    54    48    51   1 
    55    52    53   1 
    56    52    54   1 
    57    52    55   1 
 
