@<TRIPOS>COMMENT
   inp11.mol2              4    of   10
                  SCORE =  -276.6161
               dG-SCORE =    -6.9777
      LIGAND_EFFICIENCY =    -0.8923
  NUMBER_OF_HEAVY_ATOMS =         31
                    ASA =  -172.6647
                    ELE =     0.0000
                    HYD =  -103.9514
                    VDW =     0.0000
                   RMSD =    28.5029
 MOLECULAR_WEIGHT = 459.37
@<TRIPOS>MOLECULE
inp11.mol2                                                                      
   55   57    0    0    0
SMALL       
GASTEIGER      
 
@<TRIPOS>ATOM
    1 P        90.6039   80.5945   69.1979 P.3      1 UNK          0.0000
    2 O        92.2296   76.9069   74.7475 O.3      1 UNK          0.0000
    3 H        91.4258   77.3211   74.3742 H        1 UNK          0.0000
    4 O        94.5180   78.7878   72.5422 O.3      1 UNK          0.0000
    5 H        94.2540   79.6488   72.1637 H        1 UNK          0.0000
    6 O        91.9256   80.0324   73.2434 O.3      1 UNK          0.0000
    7 H        91.3581   80.6539   72.7464 H        1 UNK          0.0000
    8 O        90.8253   79.9039   70.6372 O.3      1 UNK          0.0000
    9 O        92.0476   73.2513   78.6391 O.2      1 UNK          0.0000
   10 O        94.4626   71.9440   75.0847 O.2      1 UNK          0.0000
   11 O        89.1330   81.2329   69.1505 O.3      1 UNK          0.0000
   12 H        89.0550   81.9181   69.8364 H        1 UNK          0.0000
   13 O        91.7001   81.7503   68.9944 O.3      1 UNK          0.0000
   14 H        91.5700   82.1598   68.1210 H        1 UNK          0.0000
   15 O        90.7412   79.4815   68.0485 O.3      1 UNK          0.0000
   16 H        90.0045   78.8506   68.1251 H        1 UNK          0.0000
   17 N        94.6155   76.4853   76.2008 N.pl3    1 UNK          0.0000
   18 N        92.9508   75.9290   78.4111 N.pl3    1 UNK          0.0000
   19 H        92.2170   75.7752   79.0989 H        1 UNK          0.0000
   20 N        94.5728   74.1134   75.6215 N.am     1 UNK          0.0000
   21 H        95.2184   74.2588   74.8564 H        1 UNK          0.0000
   22 N        93.2266   72.5324   76.8625 N.am     1 UNK          0.0000
   23 H        92.9028   71.5814   76.9846 H        1 UNK          0.0000
   24 C        93.3450   77.7289   74.3809 C.3      1 UNK          0.0000
   25 H        93.2871   78.6777   74.9304 H        1 UNK          0.0000
   26 C        94.6621   77.0179   74.8022 C.3      1 UNK          0.0000
   27 H        95.5035   77.7164   74.6918 H        1 UNK          0.0000
   28 H        94.8552   76.1994   74.0962 H        1 UNK          0.0000
   29 C        93.3290   78.0613   72.8569 C.3      1 UNK          0.0000
   30 H        93.3290   77.1183   72.2944 H        1 UNK          0.0000
   31 C        94.6072   77.3539   77.3165 C.ar     1 UNK          0.0000
   32 C        94.1846   75.1652   76.4381 C.2      1 UNK          0.0000
   33 C        92.0600   78.8640   72.4328 C.3      1 UNK          0.0000
   34 H        91.1832   78.2224   72.5829 H        1 UNK          0.0000
   35 C        93.7421   77.0838   78.4101 C.ar     1 UNK          0.0000
   36 C        93.3072   74.9115   77.5177 C.2      1 UNK          0.0000
   37 C        95.4435   78.4872   77.3593 C.ar     1 UNK          0.0000
   38 H        96.1304   78.7017   76.5452 H        1 UNK          0.0000
   39 C        92.0718   79.2576   70.9340 C.3      1 UNK          0.0000
   40 H        92.1882   78.3625   70.3082 H        1 UNK          0.0000
   41 H        92.9077   79.9382   70.7270 H        1 UNK          0.0000
   42 C        93.7060   77.9509   79.5145 C.ar     1 UNK          0.0000
   43 H        93.0463   77.7419   80.3546 H        1 UNK          0.0000
   44 C        95.4080   79.3555   78.4683 C.ar     1 UNK          0.0000
   45 C        94.5335   79.0891   79.5488 C.ar     1 UNK          0.0000
   46 C        92.8057   73.5210   77.7295 C.2      1 UNK          0.0000
   47 C        94.0985   72.8270   75.8298 C.2      1 UNK          0.0000
   48 C        96.3282   80.5774   78.4880 C.3      1 UNK          0.0000
   49 H        95.7557   81.5038   78.6210 H        1 UNK          0.0000
   50 H        96.8965   80.6789   77.5542 H        1 UNK          0.0000
   51 H        97.0554   80.5097   79.3069 H        1 UNK          0.0000
   52 C        94.4780   80.0138   80.7646 C.3      1 UNK          0.0000
   53 H        93.7840   79.6440   81.5299 H        1 UNK          0.0000
   54 H        95.4638   80.1066   81.2385 H        1 UNK          0.0000
   55 H        94.1442   81.0199   80.4808 H        1 UNK          0.0000
@<TRIPOS>BOND
     1     1     8   1 
     2     1    11   1 
     3     1    13   1 
     4     1    15   1 
     5     2     3   1 
     6     2    24   1 
     7     4     5   1 
     8     4    29   1 
     9     6     7   1 
    10     6    33   1 
    11     8    39   1 
    12     9    46   2 
    13    10    47   2 
    14    11    12   1 
    15    13    14   1 
    16    15    16   1 
    17    17    26   1 
    18    17    31   1 
    19    17    32   1 
    20    18    19   1 
    21    18    35   1 
    22    18    36   1 
    23    20    21   1 
    24    20    32   1 
    25    20    47   am
    26    22    23   1 
    27    22    46   am
    28    22    47   am
    29    24    25   1 
    30    24    26   1 
    31    24    29   1 
    32    26    27   1 
    33    26    28   1 
    34    29    30   1 
    35    29    33   1 
    36    31    35   ar
    37    31    37   ar
    38    32    36   2 
    39    33    34   1 
    40    33    39   1 
    41    35    42   ar
    42    36    46   1 
    43    37    38   1 
    44    37    44   ar
    45    39    40   1 
    46    39    41   1 
    47    42    43   1 
    48    42    45   ar
    49    44    45   ar
    50    44    48   1 
    51    45    52   1 
    52    48    49   1 
    53    48    50   1 
    54    48    51   1 
    55    52    53   1 
    56    52    54   1 
    57    52    55   1 
 
