@<TRIPOS>COMMENT
   inp11.mol2              6    of   10
                  SCORE =  -298.1285
               dG-SCORE =    -6.9426
      LIGAND_EFFICIENCY =    -0.9617
  NUMBER_OF_HEAVY_ATOMS =         31
                    ASA =  -234.0171
                    ELE =     0.0000
                    HYD =   -64.1114
                    VDW =     0.0000
                   RMSD =    28.7259
 MOLECULAR_WEIGHT = 459.37
@<TRIPOS>MOLECULE
inp11.mol2                                                                      
   55   57    0    0    0
SMALL       
GASTEIGER      
 
@<TRIPOS>ATOM
    1 P        88.9662   82.0206   71.6654 P.3      1 UNK          0.0000
    2 O        93.9486   79.6283   75.7265 O.3      1 UNK          0.0000
    3 H        93.8875   80.1149   74.8800 H        1 UNK          0.0000
    4 O        90.3979   78.6142   75.6797 O.3      1 UNK          0.0000
    5 H        89.9071   78.5473   74.8378 H        1 UNK          0.0000
    6 O        91.7474   79.0752   73.0859 O.3      1 UNK          0.0000
    7 H        91.3975   79.3869   72.2283 H        1 UNK          0.0000
    8 O        90.2570   81.3793   72.3865 O.3      1 UNK          0.0000
    9 O        98.4759   79.3009   78.5439 O.2      1 UNK          0.0000
   10 O        94.9698   80.7102   80.9721 O.2      1 UNK          0.0000
   11 O        89.4034   82.5882   70.2301 O.3      1 UNK          0.0000
   12 H        89.7327   81.8572   69.6793 H        1 UNK          0.0000
   13 O        87.8485   80.8829   71.4777 O.3      1 UNK          0.0000
   14 H        87.0667   81.2747   71.0502 H        1 UNK          0.0000
   15 O        88.3982   83.2231   72.5656 O.3      1 UNK          0.0000
   16 H        89.0477   83.9473   72.5779 H        1 UNK          0.0000
   17 N        94.1056   77.5488   77.6327 N.pl3    1 UNK          0.0000
   18 N        96.8700   77.4909   77.0663 N.pl3    1 UNK          0.0000
   19 H        97.8274   77.5911   76.7366 H        1 UNK          0.0000
   20 N        94.5419   79.1757   79.4008 N.am     1 UNK          0.0000
   21 H        93.5689   79.1793   79.6776 H        1 UNK          0.0000
   22 N        96.7611   80.0565   79.7896 N.am     1 UNK          0.0000
   23 H        97.3656   80.6761   80.3140 H        1 UNK          0.0000
   24 C        92.8153   78.7541   75.8010 C.3      1 UNK          0.0000
   25 H        92.9292   77.9550   75.0566 H        1 UNK          0.0000
   26 C        92.7761   78.0893   77.2061 C.3      1 UNK          0.0000
   27 H        92.0241   77.2877   77.2080 H        1 UNK          0.0000
   28 H        92.4244   78.8342   77.9322 H        1 UNK          0.0000
   29 C        91.4902   79.5134   75.4831 C.3      1 UNK          0.0000
   30 H        91.3917   80.3517   76.1854 H        1 UNK          0.0000
   31 C        94.6749   76.4190   77.0013 C.ar     1 UNK          0.0000
   32 C        94.9895   78.3568   78.3747 C.2      1 UNK          0.0000
   33 C        91.4702   80.1028   74.0385 C.3      1 UNK          0.0000
   34 H        92.2497   80.8714   73.9716 H        1 UNK          0.0000
   35 C        96.0608   76.4122   76.6905 C.ar     1 UNK          0.0000
   36 C        96.3641   78.3572   78.0430 C.2      1 UNK          0.0000
   37 C        93.8865   75.2983   76.6725 C.ar     1 UNK          0.0000
   38 H        92.8291   75.2706   76.9212 H        1 UNK          0.0000
   39 C        90.1292   80.7981   73.6925 C.3      1 UNK          0.0000
   40 H        89.9064   81.5803   74.4307 H        1 UNK          0.0000
   41 H        89.3099   80.0677   73.7012 H        1 UNK          0.0000
   42 C        96.6349   75.3065   76.0420 C.ar     1 UNK          0.0000
   43 H        97.6978   75.2992   75.8076 H        1 UNK          0.0000
   44 C        94.4637   74.1888   76.0237 C.ar     1 UNK          0.0000
   45 C        95.8423   74.1937   75.7035 C.ar     1 UNK          0.0000
   46 C        97.2879   79.2598   78.7927 C.2      1 UNK          0.0000
   47 C        95.4113   80.0093   80.0883 C.2      1 UNK          0.0000
   48 C        93.5838   72.9855   75.6801 C.3      1 UNK          0.0000
   49 H        93.6239   72.7572   74.6077 H        1 UNK          0.0000
   50 H        92.5304   73.1606   75.9349 H        1 UNK          0.0000
   51 H        93.9077   72.0915   76.2276 H        1 UNK          0.0000
   52 C        96.4931   73.0015   75.0023 C.3      1 UNK          0.0000
   53 H        97.5725   73.1448   74.8663 H        1 UNK          0.0000
   54 H        96.3589   72.0784   75.5812 H        1 UNK          0.0000
   55 H        96.0576   72.8422   74.0078 H        1 UNK          0.0000
@<TRIPOS>BOND
     1     1     8   1 
     2     1    11   1 
     3     1    13   1 
     4     1    15   1 
     5     2     3   1 
     6     2    24   1 
     7     4     5   1 
     8     4    29   1 
     9     6     7   1 
    10     6    33   1 
    11     8    39   1 
    12     9    46   2 
    13    10    47   2 
    14    11    12   1 
    15    13    14   1 
    16    15    16   1 
    17    17    26   1 
    18    17    31   1 
    19    17    32   1 
    20    18    19   1 
    21    18    35   1 
    22    18    36   1 
    23    20    21   1 
    24    20    32   1 
    25    20    47   am
    26    22    23   1 
    27    22    46   am
    28    22    47   am
    29    24    25   1 
    30    24    26   1 
    31    24    29   1 
    32    26    27   1 
    33    26    28   1 
    34    29    30   1 
    35    29    33   1 
    36    31    35   ar
    37    31    37   ar
    38    32    36   2 
    39    33    34   1 
    40    33    39   1 
    41    35    42   ar
    42    36    46   1 
    43    37    38   1 
    44    37    44   ar
    45    39    40   1 
    46    39    41   1 
    47    42    43   1 
    48    42    45   ar
    49    44    45   ar
    50    44    48   1 
    51    45    52   1 
    52    48    49   1 
    53    48    50   1 
    54    48    51   1 
    55    52    53   1 
    56    52    54   1 
    57    52    55   1 
 
