inp11.mol2
     Hgene          

 31 33  0  0  0  0               V2000
   97.5491   73.9669   71.3318 P   0  0  1  0  0
   91.9512   77.9051   71.7711 O   0  0  0  0  0
   92.2903   74.6549   70.0511 O   0  0  0  0  0
   93.6026   74.9789   72.6843 O   0  0  0  0  0
   96.2570   74.8548   71.7053 O   0  0  0  0  0
   88.7820   82.1718   72.3128 O   0  0  0  0  0
   89.7086   81.1788   68.0315 O   0  0  0  0  0
   98.6188   74.0829   72.5216 O   0  0  0  0  0
   97.1021   72.4345   71.1561 O   0  0  0  0  0
   98.1992   74.5219   69.9722 O   0  0  0  0  0
   89.2538   77.5853   70.9935 N   0  0  0  0  0
   88.6405   79.4341   73.0360 N   0  0  0  0  0
   89.4642   79.4462   69.4263 N   0  0  0  0  0
   89.2568   81.7435   70.1555 N   0  0  0  0  0
   91.5780   76.6002   71.3104 C   0  0  0  0  0
   90.3228   76.7207   70.4006 C   0  0  0  0  0
   92.7606   75.8979   70.5746 C   0  0  0  0  0
   88.5184   77.1690   72.1270 C   0  0  0  0  0
   89.2210   78.9636   70.7037 C   0  0  0  0  0
   93.9959   75.6772   71.5019 C   0  0  0  0  0
   88.2427   78.0982   73.1653 C   0  0  0  0  0
   88.9655   79.8806   71.7494 C   0  0  0  0  0
   88.0561   75.8430   72.2444 C   0  0  0  0  0
   95.1479   74.9177   70.7967 C   0  0  0  0  0
   87.5338   77.6924   74.3079 C   0  0  0  0  0
   87.3434   75.4373   73.3901 C   0  0  0  0  0
   87.0841   76.3640   74.4280 C   0  0  0  0  0
   88.9908   81.3433   71.4497 C   0  0  0  0  0
   89.4851   80.8077   69.1627 C   0  0  0  0  0
   86.8525   73.9919   73.4895 C   0  0  0  0  0
   86.3109   75.9497   75.6797 C   0  0  0  0  0
  1  5  1  0
  1  8  1  0
  1  9  1  0
  1 10  1  0
  2 15  1  0
  3 17  1  0
  4 20  1  0
  5 24  1  0
  6 28  2  0
  7 29  2  0
 11 16  1  0
 11 18  1  0
 11 19  1  0
 12 21  1  0
 12 22  1  0
 13 19  1  0
 13 29  1  0
 14 28  1  0
 14 29  1  0
 15 16  1  0
 15 17  1  0
 17 20  1  0
 18 21  4  0
 18 23  4  0
 19 22  2  0
 20 24  1  0
 21 25  4  0
 22 28  1  0
 23 26  4  0
 25 27  4  0
 26 27  4  0
 26 30  1  0
 27 31  1  0
M  END
$$$$
