@<TRIPOS>COMMENT
   inp11.mol2              8    of   10
                  SCORE =  -254.8523
               dG-SCORE =    -6.4845
      LIGAND_EFFICIENCY =    -0.8221
  NUMBER_OF_HEAVY_ATOMS =         31
                    ASA =  -146.0643
                    ELE =     0.0000
                    HYD =  -108.7879
                    VDW =     0.0000
                   RMSD =    28.5696
 MOLECULAR_WEIGHT = 459.37
@<TRIPOS>MOLECULE
inp11.mol2                                                                      
   55   57    0    0    0
SMALL       
GASTEIGER      
 
@<TRIPOS>ATOM
    1 P        97.5491   73.9669   71.3318 P.3      1 UNK          0.0000
    2 O        91.9512   77.9051   71.7711 O.3      1 UNK          0.0000
    3 H        92.8018   77.8156   72.2459 H        1 UNK          0.0000
    4 O        92.2903   74.6549   70.0511 O.3      1 UNK          0.0000
    5 H        92.8370   73.9408   70.4325 H        1 UNK          0.0000
    6 O        93.6026   74.9789   72.6843 O.3      1 UNK          0.0000
    7 H        94.4119   74.5720   73.0511 H        1 UNK          0.0000
    8 O        96.2570   74.8548   71.7053 O.3      1 UNK          0.0000
    9 O        88.7820   82.1718   72.3128 O.2      1 UNK          0.0000
   10 O        89.7086   81.1788   68.0315 O.2      1 UNK          0.0000
   11 O        98.6188   74.0829   72.5216 O.3      1 UNK          0.0000
   12 H        98.2305   73.7323   73.3416 H        1 UNK          0.0000
   13 O        97.1021   72.4345   71.1561 O.3      1 UNK          0.0000
   14 H        97.8824   71.9020   70.9218 H        1 UNK          0.0000
   15 O        98.1992   74.5219   69.9722 O.3      1 UNK          0.0000
   16 H        98.5599   75.4114   70.1304 H        1 UNK          0.0000
   17 N        89.2538   77.5853   70.9935 N.pl3    1 UNK          0.0000
   18 N        88.6405   79.4341   73.0360 N.pl3    1 UNK          0.0000
   19 H        88.5935   80.0912   73.8114 H        1 UNK          0.0000
   20 N        89.4642   79.4462   69.4263 N.am     1 UNK          0.0000
   21 H        89.6260   78.8147   68.6528 H        1 UNK          0.0000
   22 N        89.2568   81.7435   70.1555 N.am     1 UNK          0.0000
   23 H        89.2783   82.7288   69.9252 H        1 UNK          0.0000
   24 C        91.5780   76.6002   71.3104 C.3      1 UNK          0.0000
   25 H        91.3061   75.9792   72.1742 H        1 UNK          0.0000
   26 C        90.3228   76.7207   70.4006 C.3      1 UNK          0.0000
   27 H        89.9257   75.7168   70.1945 H        1 UNK          0.0000
   28 H        90.6364   77.1260   69.4295 H        1 UNK          0.0000
   29 C        92.7606   75.8979   70.5746 C.3      1 UNK          0.0000
   30 H        93.0810   76.5366   69.7408 H        1 UNK          0.0000
   31 C        88.5184   77.1690   72.1270 C.ar     1 UNK          0.0000
   32 C        89.2210   78.9636   70.7037 C.2      1 UNK          0.0000
   33 C        93.9959   75.6772   71.5019 C.3      1 UNK          0.0000
   34 H        94.3927   76.6603   71.7831 H        1 UNK          0.0000
   35 C        88.2427   78.0982   73.1653 C.ar     1 UNK          0.0000
   36 C        88.9655   79.8806   71.7494 C.2      1 UNK          0.0000
   37 C        88.0561   75.8430   72.2444 C.ar     1 UNK          0.0000
   38 H        88.2345   75.1204   71.4527 H        1 UNK          0.0000
   39 C        95.1479   74.9177   70.7967 C.3      1 UNK          0.0000
   40 H        95.4440   75.4451   69.8798 H        1 UNK          0.0000
   41 H        94.8245   73.9043   70.5262 H        1 UNK          0.0000
   42 C        87.5338   77.6924   74.3079 C.ar     1 UNK          0.0000
   43 H        87.3186   78.4053   75.1018 H        1 UNK          0.0000
   44 C        87.3434   75.4373   73.3901 C.ar     1 UNK          0.0000
   45 C        87.0841   76.3640   74.4280 C.ar     1 UNK          0.0000
   46 C        88.9908   81.3433   71.4497 C.2      1 UNK          0.0000
   47 C        89.4851   80.8077   69.1627 C.2      1 UNK          0.0000
   48 C        86.8525   73.9919   73.4895 C.3      1 UNK          0.0000
   49 H        87.2272   73.5067   74.3993 H        1 UNK          0.0000
   50 H        87.1863   73.3851   72.6377 H        1 UNK          0.0000
   51 H        85.7564   73.9488   73.5112 H        1 UNK          0.0000
   52 C        86.3109   75.9497   75.6797 C.3      1 UNK          0.0000
   53 H        86.1572   76.7931   76.3647 H        1 UNK          0.0000
   54 H        85.3190   75.5564   75.4220 H        1 UNK          0.0000
   55 H        86.8481   75.1714   76.2364 H        1 UNK          0.0000
@<TRIPOS>BOND
     1     1     8   1 
     2     1    11   1 
     3     1    13   1 
     4     1    15   1 
     5     2     3   1 
     6     2    24   1 
     7     4     5   1 
     8     4    29   1 
     9     6     7   1 
    10     6    33   1 
    11     8    39   1 
    12     9    46   2 
    13    10    47   2 
    14    11    12   1 
    15    13    14   1 
    16    15    16   1 
    17    17    26   1 
    18    17    31   1 
    19    17    32   1 
    20    18    19   1 
    21    18    35   1 
    22    18    36   1 
    23    20    21   1 
    24    20    32   1 
    25    20    47   am
    26    22    23   1 
    27    22    46   am
    28    22    47   am
    29    24    25   1 
    30    24    26   1 
    31    24    29   1 
    32    26    27   1 
    33    26    28   1 
    34    29    30   1 
    35    29    33   1 
    36    31    35   ar
    37    31    37   ar
    38    32    36   2 
    39    33    34   1 
    40    33    39   1 
    41    35    42   ar
    42    36    46   1 
    43    37    38   1 
    44    37    44   ar
    45    39    40   1 
    46    39    41   1 
    47    42    43   1 
    48    42    45   ar
    49    44    45   ar
    50    44    48   1 
    51    45    52   1 
    52    48    49   1 
    53    48    50   1 
    54    48    51   1 
    55    52    53   1 
    56    52    54   1 
    57    52    55   1 
 
