@<TRIPOS>COMMENT
   inp11.mol2             10    of   10
                  SCORE =  -255.3420
               dG-SCORE =    -5.0558
      LIGAND_EFFICIENCY =    -0.8237
  NUMBER_OF_HEAVY_ATOMS =         31
                    ASA =  -224.2601
                    ELE =     0.0000
                    HYD =   -24.1570
                    VDW =    -6.9249
                   RMSD =    29.3428
 MOLECULAR_WEIGHT = 459.37
@<TRIPOS>MOLECULE
inp11.mol2                                                                      
   55   57    0    0    0
SMALL       
GASTEIGER      
 
@<TRIPOS>ATOM
    1 P        96.2504   80.5504   78.4342 P.3      1 UNK          0.0000
    2 O        91.4472   78.6926   73.9010 O.3      1 UNK          0.0000
    3 H        92.4178   78.7723   73.9063 H        1 UNK          0.0000
    4 O        91.2146   81.1980   76.6020 O.3      1 UNK          0.0000
    5 H        91.8374   81.4273   77.3161 H        1 UNK          0.0000
    6 O        93.5683   81.2404   75.1825 O.3      1 UNK          0.0000
    7 H        94.5197   81.3920   75.3140 H        1 UNK          0.0000
    8 O        95.2750   80.2144   77.1980 O.3      1 UNK          0.0000
    9 O        88.5664   75.8075   70.0765 O.2      1 UNK          0.0000
   10 O        86.8407   74.8616   74.0712 O.2      1 UNK          0.0000
   11 O        97.7603   80.6450   77.8996 O.3      1 UNK          0.0000
   12 H        97.8132   81.3033   77.1853 H        1 UNK          0.0000
   13 O        95.8001   81.9272   79.1148 O.3      1 UNK          0.0000
   14 H        96.4363   82.1443   79.8086 H        1 UNK          0.0000
   15 O        96.1572   79.3418   79.4545 O.3      1 UNK          0.0000
   16 H        96.3506   78.5382   78.9481 H        1 UNK          0.0000
   17 N        88.7080   79.2575   73.5108 N.pl3    1 UNK          0.0000
   18 N        89.1573   78.5878   70.8058 N.pl3    1 UNK          0.0000
   19 H        89.4917   78.3310   69.8804 H        1 UNK          0.0000
   20 N        87.8275   76.9189   73.9057 N.am     1 UNK          0.0000
   21 H        87.5461   77.0941   74.8391 H        1 UNK          0.0000
   22 N        87.9197   75.2341   72.1583 N.am     1 UNK          0.0000
   23 H        87.7802   74.2720   71.9037 H        1 UNK          0.0000
   24 C        90.9020   79.7877   74.6463 C.3      1 UNK          0.0000
   25 H        91.0492   80.7082   74.0717 H        1 UNK          0.0000
   26 C        89.3421   79.5906   74.7950 C.3      1 UNK          0.0000
   27 H        88.8758   80.5139   75.1823 H        1 UNK          0.0000
   28 H        89.1465   78.7753   75.4976 H        1 UNK          0.0000
   29 C        91.6842   79.9798   75.9939 C.3      1 UNK          0.0000
   30 H        91.5013   79.1034   76.6316 H        1 UNK          0.0000
   31 C        88.6039   80.3022   72.5552 C.ar     1 UNK          0.0000
   32 C        88.4580   77.8992   73.1068 C.2      1 UNK          0.0000
   33 C        93.2279   80.0667   75.9276 C.3      1 UNK          0.0000
   34 H        93.6115   79.1715   75.4236 H        1 UNK          0.0000
   35 C        88.8737   79.9574   71.1683 C.ar     1 UNK          0.0000
   36 C        88.7980   77.5598   71.7254 C.2      1 UNK          0.0000
   37 C        88.3174   81.6701   72.9202 C.ar     1 UNK          0.0000
   38 H        88.1958   81.9552   73.9613 H        1 UNK          0.0000
   39 C        93.8501   80.0904   77.3597 C.3      1 UNK          0.0000
   40 H        93.6001   79.1738   77.9174 H        1 UNK          0.0000
   41 H        93.4523   80.9458   77.9239 H        1 UNK          0.0000
   42 C        88.8186   80.9922   70.1877 C.ar     1 UNK          0.0000
   43 H        89.0442   80.7723   69.1462 H        1 UNK          0.0000
   44 C        88.1727   82.6796   71.9195 C.ar     1 UNK          0.0000
   45 C        88.4302   82.3311   70.5395 C.ar     1 UNK          0.0000
   46 C        88.4947   76.1382   71.2491 C.2      1 UNK          0.0000
   47 C        87.4994   75.6319   73.4236 C.2      1 UNK          0.0000
   48 C        87.7765   84.1104   72.3446 C.3      1 UNK          0.0000
   49 H        88.5353   84.8367   72.0230 H        1 UNK          0.0000
   50 H        87.6740   84.2185   73.4330 H        1 UNK          0.0000
   51 H        86.8202   84.4174   71.9008 H        1 UNK          0.0000
   52 C        88.3219   83.3566   69.4119 C.3      1 UNK          0.0000
   53 H        88.4533   82.8933   68.4255 H        1 UNK          0.0000
   54 H        87.3424   83.8535   69.4106 H        1 UNK          0.0000
   55 H        89.0929   84.1315   69.5116 H        1 UNK          0.0000
@<TRIPOS>BOND
     1     1     8   1 
     2     1    11   1 
     3     1    13   1 
     4     1    15   1 
     5     2     3   1 
     6     2    24   1 
     7     4     5   1 
     8     4    29   1 
     9     6     7   1 
    10     6    33   1 
    11     8    39   1 
    12     9    46   2 
    13    10    47   2 
    14    11    12   1 
    15    13    14   1 
    16    15    16   1 
    17    17    26   1 
    18    17    31   1 
    19    17    32   1 
    20    18    19   1 
    21    18    35   1 
    22    18    36   1 
    23    20    21   1 
    24    20    32   1 
    25    20    47   am
    26    22    23   1 
    27    22    46   am
    28    22    47   am
    29    24    25   1 
    30    24    26   1 
    31    24    29   1 
    32    26    27   1 
    33    26    28   1 
    34    29    30   1 
    35    29    33   1 
    36    31    35   ar
    37    31    37   ar
    38    32    36   2 
    39    33    34   1 
    40    33    39   1 
    41    35    42   ar
    42    36    46   1 
    43    37    38   1 
    44    37    44   ar
    45    39    40   1 
    46    39    41   1 
    47    42    43   1 
    48    42    45   ar
    49    44    45   ar
    50    44    48   1 
    51    45    52   1 
    52    48    49   1 
    53    48    50   1 
    54    48    51   1 
    55    52    53   1 
    56    52    54   1 
    57    52    55   1 
 
