inp11.mol2
     Hgene          

 48 52  0  0  0  0               V2000
   89.7520   90.4380   99.6810 N   0  0  0  0  0
   90.6540   91.4170  100.0440 C   0  0  0  0  0
   91.1680   92.0570   99.1470 O   0  0  0  0  0
   90.9830   91.6790  101.4920 C   0  0  0  0  0
   91.9560   92.6360  101.8300 C   0  0  0  0  0
   92.2650   92.8730  103.1750 C   0  0  0  0  0
   91.6070   92.1610  104.1890 C   0  0  0  0  0
   90.6300   91.2020  103.8770 N   0  0  0  0  0
   90.3250   90.9720  102.5200 C   0  0  0  0  0
   90.0250   90.4010  104.9700 C   0  0  0  0  0
   89.1640   89.3710  104.4500 O   0  0  0  0  0
   88.3740   88.8340  105.5400 C   0  0  0  0  0
   89.0280   87.5460  106.1300 C   0  0  0  0  0
   90.4220   87.7700  106.4340 O   0  0  0  0  0
   91.6220   87.2830  105.4590 P   0  0  2  0  0
   92.8390   88.3250  105.6010 O   0  0  0  0  0
   91.1540   87.2900  103.9200 O   0  0  0  0  0
   92.1250   85.8140  105.8840 O   0  0  0  0  0
   91.6730   84.4200  105.2190 P   0  0  1  0  0
   92.5660   84.1200  103.9170 O   0  0  0  0  0
   91.8760   83.2600  106.3150 O   0  0  0  0  0
   90.1050   84.5100  104.8210 O   0  0  0  0  0
   89.2160   83.3770  104.9420 C   0  0  0  0  0
   89.5970   82.2740  103.9220 C   0  0  0  0  0
   89.2100   82.6890  102.5950 O   0  0  0  0  0
   89.2540   81.5180  101.7490 C   0  0  0  0  0
   88.7610   80.3680  102.6840 C   0  0  0  0  0
   87.4140   79.9280  102.3590 O   0  0  0  0  0
   86.1740   80.8980  101.9660 P   0  0  2  0  0
   86.2560   82.3000  102.7490 O   0  0  0  0  0
   84.8090   80.1550  102.3610 O   0  0  0  0  0
   86.1870   81.1650  100.3820 O   0  0  0  0  0
   88.7950   80.9760  104.1050 C   0  0  0  0  0
   89.4050   80.1060  105.0600 O   0  0  0  0  0
   90.6210   81.3440  101.2270 N   0  0  0  0  0
   91.6800   82.2680  101.2230 C   0  0  0  0  0
   92.7670   81.8200  100.5760 N   0  0  0  0  0
   92.3700   80.6020  100.1370 C   0  0  0  0  0
   91.0880   80.2870  100.4980 C   0  0  0  0  0
   90.5000   79.1280  100.1410 N   0  0  0  0  0
   91.2750   78.2960   99.4050 C   0  0  0  0  0
   92.5520   78.5140   99.0030 N   0  0  0  0  0
   93.1140   79.6850   99.3710 C   0  0  0  0  0
   94.4040   79.9570   98.9820 N   0  0  0  0  0
   88.2870   90.0030  106.5660 C   0  0  0  0  0
   86.9390   90.3900  106.8310 O   0  0  0  0  0
   89.0640   91.1540  105.8980 C   0  0  0  0  0
   89.7480   91.9830  106.8390 O   0  0  0  0  0
  1  2  1  0
  2  3  2  0
  2  4  1  0
  4  5  4  0
  4  9  4  0
  5  6  4  0
  6  7  4  0
  7  8  4  0
  8  9  4  0
  8 10  1  0
 10 11  1  0
 10 47  1  0
 11 12  1  0
 12 13  1  0
 12 45  1  0
 13 14  1  0
 14 15  1  0
 15 16  1  0
 15 17  1  0
 15 18  1  0
 18 19  1  0
 19 20  1  0
 19 21  1  0
 19 22  1  0
 22 23  1  0
 23 24  1  0
 24 25  1  0
 24 33  1  0
 25 26  1  0
 26 27  1  0
 26 35  1  0
 27 28  1  0
 27 33  1  0
 28 29  1  0
 29 30  1  0
 29 31  1  0
 29 32  1  0
 33 34  1  0
 35 36  1  0
 35 39  1  0
 36 37  2  0
 37 38  1  0
 38 39  4  0
 38 43  4  0
 39 40  4  0
 40 41  4  0
 41 42  4  0
 42 43  4  0
 43 44  1  0
 45 46  1  0
 45 47  1  0
 47 48  1  0
M  END
$$$$
