inp11.mol2
     Hgene          

 31 33  0  0  0  0               V2000
   89.1311   84.4853   75.9848 C   0  0  0  0  0
   89.9736   83.4938   75.6403 C   0  0  0  0  0
   89.6807   82.5104   74.5182 C   0  0  0  0  0
   88.4251   82.8081   73.6881 C   0  0  0  0  0
   87.5571   83.8556   74.0585 C   0  0  0  0  0
   87.8039   84.7242   75.2844 C   0  0  0  0  0
   88.1196   82.0364   72.5305 N   0  0  0  0  0
   86.9832   82.4063   71.7672 C   0  0  0  0  0
   86.1684   83.4827   72.2324 C   0  0  0  0  0
   86.4609   84.1690   73.3515 N   0  0  0  0  0
   86.6591   81.7724   70.6201 N   0  0  0  0  0
   85.5639   82.1690   69.9516 C   0  0  0  0  0
   84.7366   83.1573   70.3106 N   0  0  0  0  0
   85.0351   83.8121   71.4469 C   0  0  0  0  0
   89.3485   85.4560   77.1441 C   0  0  0  0  0
   91.3292   83.2353   76.2968 C   0  0  0  0  0
   85.2913   81.5088   68.7999 O   0  0  0  0  0
   84.1971   84.8282   71.8022 O   0  0  0  0  0
   88.8742   80.7830   72.1439 C   0  0  0  0  0
   89.7333   80.8757   70.8430 C   0  0  0  0  0
   90.0477   82.1015   70.3846 O   0  0  0  0  0
   90.3236   79.6567   70.0653 C   0  0  0  0  0
   89.4656   79.3918   68.9285 O   0  0  0  0  0
   91.7766   79.8916   69.5928 C   0  0  0  0  0
   92.8411   80.4129   70.5683 C   0  0  0  0  0
   92.2876   80.4240   71.9006 O   0  0  0  0  0
   92.1992   79.0862   68.6058 O   0  0  0  0  0
   92.5490   79.2051   72.9228 P   0  0  2  0  0
   91.9759   77.8713   72.2354 O   0  0  0  0  0
   91.7139   79.5041   74.2585 O   0  0  0  0  0
   94.1145   79.0711   73.2257 O   0  0  0  0  0
  1  2  2  0
  1  6  1  0
  1 15  1  0
  2  3  1  0
  2 16  1  0
  3  4  1  0
  4  5  4  0
  4  7  4  0
  5  6  1  0
  5 10  4  0
  7  8  4  0
  7 19  1  0
  8  9  4  0
  8 11  4  0
  9 10  4  0
  9 14  4  0
 11 12  4  0
 12 13  4  0
 12 17  1  0
 13 14  4  0
 14 18  1  0
 19 20  1  0
 20 21  1  0
 20 22  1  0
 22 23  1  0
 22 24  1  0
 24 25  1  0
 24 27  1  0
 25 26  1  0
 26 28  1  0
 28 29  1  0
 28 30  1  0
 28 31  1  0
M  END
$$$$
