@<TRIPOS>COMMENT
   inp11.mol2              2    of   10
                  SCORE =  -297.8687
               dG-SCORE =    -7.1999
      LIGAND_EFFICIENCY =    -0.9609
  NUMBER_OF_HEAVY_ATOMS =         31
                    ASA =  -197.9125
                    ELE =     0.0000
                    HYD =   -99.9562
                    VDW =     0.0000
                   RMSD =    33.9359
 MOLECULAR_WEIGHT = 458.36
@<TRIPOS>MOLECULE
inp11.mol2                                                                      
   54   56    0    0    0
SMALL       
GASTEIGER      
 
@<TRIPOS>ATOM
    1 C        89.1311   84.4853   75.9848 C.2      1 UNK          0.0000
    2 C        89.9736   83.4938   75.6403 C.2      1 UNK          0.0000
    3 C        89.6807   82.5104   74.5182 C.3      1 UNK          0.0000
    4 H        90.5501   82.4799   73.8501 H        1 UNK          0.0000
    5 H        89.5988   81.5112   74.9662 H        1 UNK          0.0000
    6 C        88.4251   82.8081   73.6881 C.ar     1 UNK          0.0000
    7 C        87.5571   83.8556   74.0585 C.ar     1 UNK          0.0000
    8 C        87.8039   84.7242   75.2844 C.3      1 UNK          0.0000
    9 H        86.9866   84.5801   76.0040 H        1 UNK          0.0000
   10 H        87.7491   85.7817   74.9897 H        1 UNK          0.0000
   11 N        88.1196   82.0364   72.5305 N.ar     1 UNK          0.0000
   12 C        86.9832   82.4063   71.7672 C.ar     1 UNK          0.0000
   13 C        86.1684   83.4827   72.2324 C.ar     1 UNK          0.0000
   14 N        86.4609   84.1690   73.3515 N.ar     1 UNK          0.0000
   15 N        86.6591   81.7724   70.6201 N.ar     1 UNK          0.0000
   16 C        85.5639   82.1690   69.9516 C.ar     1 UNK          0.0000
   17 N        84.7366   83.1573   70.3106 N.ar     1 UNK          0.0000
   18 C        85.0351   83.8121   71.4469 C.ar     1 UNK          0.0000
   19 C        89.3485   85.4560   77.1441 C.3      1 UNK          0.0000
   20 H        88.4183   85.6009   77.7086 H        1 UNK          0.0000
   21 H        90.0898   85.1106   77.8732 H        1 UNK          0.0000
   22 H        89.6559   86.4441   76.7768 H        1 UNK          0.0000
   23 C        91.3292   83.2353   76.2968 C.3      1 UNK          0.0000
   24 H        92.1021   83.0452   75.5403 H        1 UNK          0.0000
   25 H        91.6949   84.0803   76.8902 H        1 UNK          0.0000
   26 H        91.2876   82.3515   76.9448 H        1 UNK          0.0000
   27 O        85.2913   81.5088   68.7999 O.3      1 UNK          0.0000
   28 H        84.4606   81.8665   68.4301 H        1 UNK          0.0000
   29 O        84.1971   84.8282   71.8022 O.3      1 UNK          0.0000
   30 H        84.4808   85.2297   72.6446 H        1 UNK          0.0000
   31 C        88.8742   80.7830   72.1439 C.3      1 UNK          0.0000
   32 H        89.5184   80.4785   72.9781 H        1 UNK          0.0000
   33 H        88.1327   79.9770   72.0372 H        1 UNK          0.0000
   34 C        89.7333   80.8757   70.8430 C.3      1 UNK          0.0000
   35 O        90.0477   82.1015   70.3846 O.3      1 UNK          0.0000
   36 H        89.3508   82.4422   69.7880 H        1 UNK          0.0000
   37 C        90.3236   79.6567   70.0653 C.3      1 UNK          0.0000
   38 H        90.3755   78.7546   70.7005 H        1 UNK          0.0000
   39 O        89.4656   79.3918   68.9285 O.3      1 UNK          0.0000
   40 H        89.9320   78.9168   68.2024 H        1 UNK          0.0000
   41 C        91.7766   79.8916   69.5928 C.3      1 UNK          0.0000
   42 C        92.8411   80.4129   70.5683 C.3      1 UNK          0.0000
   43 H        93.7507   79.7923   70.5315 H        1 UNK          0.0000
   44 H        93.1355   81.4331   70.2831 H        1 UNK          0.0000
   45 O        92.2876   80.4240   71.9006 O.3      1 UNK          0.0000
   46 O        92.1992   79.0862   68.6058 O.3      1 UNK          0.0000
   47 H        93.1097   79.3249   68.3332 H        1 UNK          0.0000
   48 P        92.5490   79.2051   72.9228 P.3      1 UNK          0.0000
   49 O        91.9759   77.8713   72.2354 O.3      1 UNK          0.0000
   50 H        92.2390   77.1015   72.7817 H        1 UNK          0.0000
   51 O        91.7139   79.5041   74.2585 O.3      1 UNK          0.0000
   52 H        91.9633   78.8651   74.9545 H        1 UNK          0.0000
   53 O        94.1145   79.0711   73.2257 O.3      1 UNK          0.0000
   54 H        94.4485   79.8436   73.7193 H        1 UNK          0.0000
@<TRIPOS>BOND
     1     1     2   2 
     2     1     8   1 
     3     1    19   1 
     4     2     3   1 
     5     2    23   1 
     6     3     4   1 
     7     3     5   1 
     8     3     6   1 
     9     6     7   ar
    10     6    11   ar
    11     7     8   1 
    12     7    14   ar
    13     8     9   1 
    14     8    10   1 
    15    11    12   ar
    16    11    31   1 
    17    12    13   ar
    18    12    15   ar
    19    13    14   ar
    20    13    18   ar
    21    15    16   ar
    22    16    17   ar
    23    16    27   1 
    24    17    18   ar
    25    18    29   1 
    26    19    20   1 
    27    19    21   1 
    28    19    22   1 
    29    23    24   1 
    30    23    25   1 
    31    23    26   1 
    32    27    28   1 
    33    29    30   1 
    34    31    32   1 
    35    31    33   1 
    36    31    34   1 
    37    34    35   1 
    38    34    37   1 
    39    35    36   1 
    40    37    38   1 
    41    37    39   1 
    42    37    41   1 
    43    39    40   1 
    44    41    42   1 
    45    41    46   1 
    46    42    43   1 
    47    42    44   1 
    48    42    45   1 
    49    45    48   1 
    50    46    47   1 
    51    48    49   1 
    52    48    51   1 
    53    48    53   1 
    54    49    50   1 
    55    51    52   1 
    56    53    54   1 
 
