inp11.mol2
     Hgene          

 31 33  0  0  0  0               V2000
   92.4289   80.1618   77.6172 C   0  0  0  0  0
   92.6506   78.9093   78.0853 C   0  0  0  0  0
   92.7184   77.6527   77.2021 C   0  0  0  0  0
   92.8005   77.9330   75.7077 C   0  0  0  0  0
   92.5553   79.2652   75.1861 C   0  0  0  0  0
   92.3223   80.4800   76.1347 C   0  0  0  0  0
   93.1217   76.8627   74.7393 N   0  0  0  0  0
   93.1387   77.2030   73.3421 C   0  0  0  0  0
   92.8223   78.5890   72.9273 C   0  0  0  0  0
   92.5400   79.5667   73.8755 N   0  0  0  0  0
   93.3989   76.2496   72.3431 N   0  0  0  0  0
   93.3441   76.6346   71.0349 C   0  0  0  0  0
   93.0562   77.8918   70.5759 N   0  0  0  0  0
   92.8103   78.8776   71.5201 C   0  0  0  0  0
   92.2812   81.4025   78.5198 C   0  0  0  0  0
   92.9277   78.5629   79.4999 C   0  0  0  0  0
   93.6026   75.6729   70.1112 O   0  0  0  0  0
   92.5691   80.1262   71.0186 O   0  0  0  0  0
   93.2556   75.4170   75.1721 C   0  0  0  0  0
   94.5540   74.6182   74.8578 C   0  0  0  0  0
   95.7086   75.2668   74.6332 O   0  0  0  0  0
   94.5947   73.0654   74.8714 C   0  0  0  0  0
   94.9950   72.6216   73.5531 O   0  0  0  0  0
   95.5168   72.5167   75.9766 C   0  0  0  0  0
   95.9098   73.3365   77.2232 C   0  0  0  0  0
   94.8159   74.1567   77.6127 O   0  0  0  0  0
   95.8440   71.2226   75.9069 O   0  0  0  0  0
   93.7377   73.3974   78.4873 P   0  0  2  0  0
   93.1839   72.1958   77.5605 O   0  0  0  0  0
   92.5770   74.4366   78.7989 O   0  0  0  0  0
   94.5691   72.9216   79.7784 O   0  0  0  0  0
  1  2  2  0
  1  6  1  0
  1 15  1  0
  2  3  1  0
  2 16  1  0
  3  4  1  0
  4  5  4  0
  4  7  4  0
  5  6  1  0
  5 10  4  0
  7  8  4  0
  7 19  1  0
  8  9  4  0
  8 11  4  0
  9 10  4  0
  9 14  4  0
 11 12  4  0
 12 13  4  0
 12 17  1  0
 13 14  4  0
 14 18  1  0
 19 20  1  0
 20 21  1  0
 20 22  1  0
 22 23  1  0
 22 24  1  0
 24 25  1  0
 24 27  1  0
 25 26  1  0
 26 28  1  0
 28 29  1  0
 28 30  1  0
 28 31  1  0
M  END
$$$$
