@<TRIPOS>COMMENT
   inp11.mol2              4    of   10
                  SCORE =  -277.8685
               dG-SCORE =    -6.1098
      LIGAND_EFFICIENCY =    -0.8964
  NUMBER_OF_HEAVY_ATOMS =         31
                    ASA =  -216.1915
                    ELE =     0.0000
                    HYD =   -61.6770
                    VDW =     0.0000
                   RMSD =    33.9299
 MOLECULAR_WEIGHT = 458.36
@<TRIPOS>MOLECULE
inp11.mol2                                                                      
   54   56    0    0    0
SMALL       
GASTEIGER      
 
@<TRIPOS>ATOM
    1 C        86.1579   82.7428   70.2156 C.2      1 UNK          0.0000
    2 C        86.3639   83.5753   71.2530 C.2      1 UNK          0.0000
    3 C        87.2296   83.2105   72.4486 C.3      1 UNK          0.0000
    4 H        87.9509   84.0204   72.6125 H        1 UNK          0.0000
    5 H        86.5802   83.1898   73.3338 H        1 UNK          0.0000
    6 C        87.9894   81.8823   72.3351 C.ar     1 UNK          0.0000
    7 C        87.7673   81.0253   71.2377 C.ar     1 UNK          0.0000
    8 C        86.7729   81.3557   70.1331 C.3      1 UNK          0.0000
    9 H        85.9700   80.6060   70.1292 H        1 UNK          0.0000
   10 H        87.2729   81.2518   69.1598 H        1 UNK          0.0000
   11 N        88.9320   81.4972   73.3310 N.ar     1 UNK          0.0000
   12 C        89.6521   80.2917   73.1324 C.ar     1 UNK          0.0000
   13 C        89.3483   79.4950   71.9870 C.ar     1 UNK          0.0000
   14 N        88.4244   79.8660   71.0826 N.ar     1 UNK          0.0000
   15 N        90.6112   79.8857   73.9915 N.ar     1 UNK          0.0000
   16 C        91.2479   78.7289   73.7469 C.ar     1 UNK          0.0000
   17 N        91.0285   77.9128   72.7097 N.ar     1 UNK          0.0000
   18 C        90.0819   78.2918   71.8325 C.ar     1 UNK          0.0000
   19 C        85.2468   83.0358   69.0251 C.3      1 UNK          0.0000
   20 H        84.6445   82.1539   68.7710 H        1 UNK          0.0000
   21 H        84.5303   83.8441   69.2087 H        1 UNK          0.0000
   22 H        85.8350   83.2881   68.1329 H        1 UNK          0.0000
   23 C        85.7902   84.9874   71.3635 C.3      1 UNK          0.0000
   24 H        86.5565   85.6972   71.7024 H        1 UNK          0.0000
   25 H        85.4178   85.3829   70.4123 H        1 UNK          0.0000
   26 H        84.9732   85.0213   72.0944 H        1 UNK          0.0000
   27 O        92.2107   78.3743   74.6324 O.3      1 UNK          0.0000
   28 H        92.5716   77.5072   74.3629 H        1 UNK          0.0000
   29 O        89.8708   77.4641   70.7690 O.3      1 UNK          0.0000
   30 H        89.1573   77.8092   70.2005 H        1 UNK          0.0000
   31 C        89.1174   82.2445   74.6337 C.3      1 UNK          0.0000
   32 H        88.2985   82.9642   74.7559 H        1 UNK          0.0000
   33 H        88.9904   81.5152   75.4478 H        1 UNK          0.0000
   34 C        90.4800   82.9874   74.8080 C.3      1 UNK          0.0000
   35 O        91.2066   83.2336   73.7020 O.3      1 UNK          0.0000
   36 H        91.7968   82.4808   73.4954 H        1 UNK          0.0000
   37 C        91.0393   83.5371   76.1586 C.3      1 UNK          0.0000
   38 H        90.2392   83.6634   76.9096 H        1 UNK          0.0000
   39 O        92.0173   82.5917   76.6571 O.3      1 UNK          0.0000
   40 H        92.6683   83.0054   77.2698 H        1 UNK          0.0000
   41 C        91.6759   84.9389   76.0197 C.3      1 UNK          0.0000
   42 C        90.9261   86.0703   75.3027 C.3      1 UNK          0.0000
   43 H        90.9143   86.9874   75.9132 H        1 UNK          0.0000
   44 H        91.4398   86.3160   74.3622 H        1 UNK          0.0000
   45 O        89.5811   85.6321   75.0190 O.3      1 UNK          0.0000
   46 O        92.5095   85.2942   77.0098 O.3      1 UNK          0.0000
   47 H        92.9045   86.1725   76.8284 H        1 UNK          0.0000
   48 P        88.3572   86.0073   75.9987 P.3      1 UNK          0.0000
   49 O        88.7024   85.4084   77.4486 O.3      1 UNK          0.0000
   50 H        88.0348   85.7346   78.0874 H        1 UNK          0.0000
   51 O        87.0433   85.2824   75.4339 O.3      1 UNK          0.0000
   52 H        86.2555   85.6047   75.9138 H        1 UNK          0.0000
   53 O        88.1721   87.5957   76.0597 O.3      1 UNK          0.0000
   54 H        87.8793   87.9527   75.2002 H        1 UNK          0.0000
@<TRIPOS>BOND
     1     1     2   2 
     2     1     8   1 
     3     1    19   1 
     4     2     3   1 
     5     2    23   1 
     6     3     4   1 
     7     3     5   1 
     8     3     6   1 
     9     6     7   ar
    10     6    11   ar
    11     7     8   1 
    12     7    14   ar
    13     8     9   1 
    14     8    10   1 
    15    11    12   ar
    16    11    31   1 
    17    12    13   ar
    18    12    15   ar
    19    13    14   ar
    20    13    18   ar
    21    15    16   ar
    22    16    17   ar
    23    16    27   1 
    24    17    18   ar
    25    18    29   1 
    26    19    20   1 
    27    19    21   1 
    28    19    22   1 
    29    23    24   1 
    30    23    25   1 
    31    23    26   1 
    32    27    28   1 
    33    29    30   1 
    34    31    32   1 
    35    31    33   1 
    36    31    34   1 
    37    34    35   1 
    38    34    37   1 
    39    35    36   1 
    40    37    38   1 
    41    37    39   1 
    42    37    41   1 
    43    39    40   1 
    44    41    42   1 
    45    41    46   1 
    46    42    43   1 
    47    42    44   1 
    48    42    45   1 
    49    45    48   1 
    50    46    47   1 
    51    48    49   1 
    52    48    51   1 
    53    48    53   1 
    54    49    50   1 
    55    51    52   1 
    56    53    54   1 
 
