inp11.mol2
     Hgene          

 31 33  0  0  0  0               V2000
   86.1579   82.7428   70.2156 C   0  0  0  0  0
   86.3639   83.5753   71.2530 C   0  0  0  0  0
   87.2296   83.2105   72.4486 C   0  0  0  0  0
   87.9894   81.8823   72.3351 C   0  0  0  0  0
   87.7673   81.0253   71.2377 C   0  0  0  0  0
   86.7729   81.3557   70.1331 C   0  0  0  0  0
   88.9320   81.4972   73.3310 N   0  0  0  0  0
   89.6521   80.2917   73.1324 C   0  0  0  0  0
   89.3483   79.4950   71.9870 C   0  0  0  0  0
   88.4244   79.8660   71.0826 N   0  0  0  0  0
   90.6112   79.8857   73.9915 N   0  0  0  0  0
   91.2479   78.7289   73.7469 C   0  0  0  0  0
   91.0285   77.9128   72.7097 N   0  0  0  0  0
   90.0819   78.2918   71.8325 C   0  0  0  0  0
   85.2468   83.0358   69.0251 C   0  0  0  0  0
   85.7902   84.9874   71.3635 C   0  0  0  0  0
   92.2107   78.3743   74.6324 O   0  0  0  0  0
   89.8708   77.4641   70.7690 O   0  0  0  0  0
   89.1174   82.2445   74.6337 C   0  0  0  0  0
   90.4800   82.9874   74.8080 C   0  0  0  0  0
   91.2066   83.2336   73.7020 O   0  0  0  0  0
   91.0393   83.5371   76.1586 C   0  0  0  0  0
   92.0173   82.5917   76.6571 O   0  0  0  0  0
   91.6759   84.9389   76.0197 C   0  0  0  0  0
   90.9261   86.0703   75.3027 C   0  0  0  0  0
   89.5811   85.6321   75.0190 O   0  0  0  0  0
   92.5095   85.2942   77.0098 O   0  0  0  0  0
   88.3572   86.0073   75.9987 P   0  0  2  0  0
   88.7024   85.4084   77.4486 O   0  0  0  0  0
   87.0433   85.2824   75.4339 O   0  0  0  0  0
   88.1721   87.5957   76.0597 O   0  0  0  0  0
  1  2  2  0
  1  6  1  0
  1 15  1  0
  2  3  1  0
  2 16  1  0
  3  4  1  0
  4  5  4  0
  4  7  4  0
  5  6  1  0
  5 10  4  0
  7  8  4  0
  7 19  1  0
  8  9  4  0
  8 11  4  0
  9 10  4  0
  9 14  4  0
 11 12  4  0
 12 13  4  0
 12 17  1  0
 13 14  4  0
 14 18  1  0
 19 20  1  0
 20 21  1  0
 20 22  1  0
 22 23  1  0
 22 24  1  0
 24 25  1  0
 24 27  1  0
 25 26  1  0
 26 28  1  0
 28 29  1  0
 28 30  1  0
 28 31  1  0
M  END
$$$$
