@<TRIPOS>MOLECULE
inp11.mol2
 43 44 0 0 0
SMALL
GASTEIGER

@<TRIPOS>ATOM
     1 P1         -52.8790     8.7490    -9.5700 P.3       1  UNK         0.0000
     2 O1         -49.7400    11.6770   -10.2280 O.3       1  UNK         0.0000
     3 O2         -51.6250     9.5140   -10.2340 O.3       1  UNK         0.0000
     4 O3         -54.3230     8.7570   -10.2670 O.3       1  UNK         0.0000
     5 H17        -54.2790     9.2910   -11.0760 H         1  UNK         0.0000
     6 O4         -53.2890    10.2970    -9.5090 O.3       1  UNK         0.0000
     7 H20        -52.9890    10.7170   -10.3320 H         1  UNK         0.0000
     8 O5         -52.6630     7.9450   -10.9410 O.3       1  UNK         0.0000
     9 H21        -53.3610     7.2720   -11.0160 H         1  UNK         0.0000
    10 O6         -52.8530    15.4850   -10.2750 O.2       1  UNK         0.0000
    11 N1         -48.9240    13.9050   -10.2620 N.ar      1  UNK         0.0000
    12 N2         -52.3080    17.4280    -9.3500 N.am      1  UNK         0.0000
    13 H18        -53.2770    17.7150    -9.3740 H         1  UNK         0.0000
    14 H19        -51.6110    18.0500    -8.9700 H         1  UNK         0.0000
    15 C1         -47.8620    10.2990   -10.0060 C.3       1  UNK         0.0000
    16 H1         -47.3110     9.6340   -10.6850 H         1  UNK         0.0000
    17 C2         -47.4130    11.7770   -10.2070 C.3       1  UNK         0.0000
    18 H2         -47.1180    12.1970    -9.2360 H         1  UNK         0.0000
    19 C3         -49.3540    10.3100   -10.4370 C.3       1  UNK         0.0000
    20 H3         -49.4200    10.0680   -11.5070 H         1  UNK         0.0000
    21 C4         -48.6860    12.5080   -10.7250 C.3       1  UNK         0.0000
    22 H4         -48.7080    12.5020   -11.8250 H         1  UNK         0.0000
    23 C5         -47.6040     9.8170    -8.5510 C.3       1  UNK         0.0000
    24 H5         -47.8780     8.7610    -8.4310 H         1  UNK         0.0000
    25 H6         -48.1780    10.4090    -7.8270 H         1  UNK         0.0000
    26 H7         -46.5400     9.9090    -8.2980 H         1  UNK         0.0000
    27 C6         -46.2220    11.8980   -11.1920 C.3       1  UNK         0.0000
    28 H8         -45.3420    11.3710   -10.7990 H         1  UNK         0.0000
    29 H9         -46.4720    11.4590   -12.1670 H         1  UNK         0.0000
    30 H10        -45.9400    12.9450   -11.3560 H         1  UNK         0.0000
    31 C7         -50.3160     9.3790    -9.6570 C.3       1  UNK         0.0000
    32 H11        -49.9770     8.3380    -9.7380 H         1  UNK         0.0000
    33 H12        -50.3440     9.6620    -8.5970 H         1  UNK         0.0000
    34 C8         -50.2400    14.4070   -10.2600 C.ar      1  UNK         0.0000
    35 H13        -51.0370    13.7490   -10.6120 H         1  UNK         0.0000
    36 C9         -47.8910    14.7610    -9.8350 C.ar      1  UNK         0.0000
    37 H14        -46.8640    14.3980    -9.8510 H         1  UNK         0.0000
    38 C10        -50.5340    15.7110    -9.8130 C.ar      1  UNK         0.0000
    39 C11        -48.1730    16.0610    -9.3830 C.ar      1  UNK         0.0000
    40 H15        -47.3630    16.7030    -9.0470 H         1  UNK         0.0000
    41 C12        -49.4890    16.5390    -9.3670 C.ar      1  UNK         0.0000
    42 H16        -49.6850    17.5500    -9.0180 H         1  UNK         0.0000
    43 C13        -51.9620    16.1840    -9.8320 C.2       1  UNK         0.0000
@<TRIPOS>BOND
     1     1     3   1
     2     1     4   1
     3     1     6   1
     4     1     8   1
     5     2    19   1
     6     2    21   1
     7     3    31   1
     8     4     5   1
     9     6     7   1
    10     8     9   1
    11    10    43   2
    12    11    21   1
    13    11    34  ar
    14    11    36  ar
    15    12    13   1
    16    12    14   1
    17    12    43  am
    18    15    16   1
    19    15    17   1
    20    15    19   1
    21    15    23   1
    22    17    18   1
    23    17    21   1
    24    17    27   1
    25    19    20   1
    26    19    31   1
    27    21    22   1
    28    23    24   1
    29    23    25   1
    30    23    26   1
    31    27    28   1
    32    27    29   1
    33    27    30   1
    34    31    32   1
    35    31    33   1
    36    34    35   1
    37    34    38  ar
    38    36    37   1
    39    36    39  ar
    40    38    41  ar
    41    38    43   1
    42    39    40   1
    43    39    41  ar
    44    41    42   1

