@<TRIPOS>MOLECULE
inp11.mol2
 80 84 0 0 0
SMALL
GASTEIGER

@<TRIPOS>ATOM
     1 N1          89.7520    90.4380    99.6810 N.am      1  UNK         0.0000
     2 H1          89.2960    89.8580   100.3680 H         1  UNK         0.0000
     3 H2          89.5600    90.2930    98.6990 H         1  UNK         0.0000
     4 C1          90.6540    91.4170   100.0440 C.2       1  UNK         0.0000
     5 O1          91.1680    92.0570    99.1470 O.2       1  UNK         0.0000
     6 C2          90.9830    91.6790   101.4920 C.ar      1  UNK         0.0000
     7 C3          91.9560    92.6360   101.8300 C.ar      1  UNK         0.0000
     8 H3          92.4770    93.1940   101.0560 H         1  UNK         0.0000
     9 C4          92.2650    92.8730   103.1750 C.ar      1  UNK         0.0000
    10 H4          93.0210    93.6110   103.4340 H         1  UNK         0.0000
    11 C5          91.6070    92.1610   104.1890 C.ar      1  UNK         0.0000
    12 H5          91.8480    92.3320   105.2410 H         1  UNK         0.0000
    13 N2          90.6300    91.2020   103.8770 N.ar      1  UNK         0.0000
    14 C6          90.3250    90.9720   102.5200 C.ar      1  UNK         0.0000
    15 H6          89.5640    90.2280   102.2830 H         1  UNK         0.0000
    16 C7          90.0250    90.4010   104.9700 C.3       1  UNK         0.0000
    17 H7          90.8390    89.9630   105.5610 H         1  UNK         0.0000
    18 O2          89.1640    89.3710   104.4500 O.3       1  UNK         0.0000
    19 C8          88.3740    88.8340   105.5400 C.3       1  UNK         0.0000
    20 H8          87.3690    88.5810   105.1750 H         1  UNK         0.0000
    21 C9          89.0280    87.5460   106.1300 C.3       1  UNK         0.0000
    22 H9          88.4960    87.2620   107.0470 H         1  UNK         0.0000
    23 H10         88.9160    86.7190   105.4180 H         1  UNK         0.0000
    24 O3          90.4220    87.7700   106.4340 O.3       1  UNK         0.0000
    25 P1          91.6220    87.2830   105.4590 P.3       1  UNK         0.0000
    26 O4          92.8390    88.3250   105.6010 O.3       1  UNK         0.0000
    27 H29         93.5960    87.9940   105.0870 H         1  UNK         0.0000
    28 O5          91.1540    87.2900   103.9200 O.3       1  UNK         0.0000
    29 H30         90.5150    86.5660   103.7830 H         1  UNK         0.0000
    30 O6          92.1250    85.8140   105.8840 O.3       1  UNK         0.0000
    31 P2          91.6730    84.4200   105.2190 P.3       1  UNK         0.0000
    32 O7          92.5660    84.1200   103.9170 O.3       1  UNK         0.0000
    33 H11         93.5020    84.0510   104.1710 H         1  UNK         0.0000
    34 O8          91.8760    83.2600   106.3150 O.3       1  UNK         0.0000
    35 H31         92.8080    83.2240   106.5880 H         1  UNK         0.0000
    36 O9          90.1050    84.5100   104.8210 O.3       1  UNK         0.0000
    37 C10         89.2160    83.3770   104.9420 C.3       1  UNK         0.0000
    38 H12         89.2670    82.9680   105.9590 H         1  UNK         0.0000
    39 H13         88.1820    83.6960   104.7610 H         1  UNK         0.0000
    40 C11         89.5970    82.2740   103.9220 C.3       1  UNK         0.0000
    41 H14         90.6700    82.0480   103.9610 H         1  UNK         0.0000
    42 O10         89.2100    82.6890   102.5950 O.3       1  UNK         0.0000
    43 C12         89.2540    81.5180   101.7490 C.3       1  UNK         0.0000
    44 H15         88.6040    81.6470   100.8770 H         1  UNK         0.0000
    45 C13         88.7610    80.3680   102.6840 C.3       1  UNK         0.0000
    46 H16         89.4510    79.5170   102.6280 H         1  UNK         0.0000
    47 O11         87.4140    79.9280   102.3590 O.3       1  UNK         0.0000
    48 P3          86.1740    80.8980   101.9660 P.3       1  UNK         0.0000
    49 O12         86.2560    82.3000   102.7490 O.3       1  UNK         0.0000
    50 H17         87.0880    82.7460   102.5110 H         1  UNK         0.0000
    51 O13         84.8090    80.1550   102.3610 O.3       1  UNK         0.0000
    52 H18         84.7680    79.2980   101.9040 H         1  UNK         0.0000
    53 O14         86.1870    81.1650   100.3820 O.3       1  UNK         0.0000
    54 H32         85.4100    81.6980   100.1430 H         1  UNK         0.0000
    55 C14         88.7950    80.9760   104.1050 C.3       1  UNK         0.0000
    56 H19         87.7780    81.2210   104.4330 H         1  UNK         0.0000
    57 O15         89.4050    80.1060   105.0600 O.3       1  UNK         0.0000
    58 H20         88.8530    79.3050   105.1220 H         1  UNK         0.0000
    59 N3          90.6210    81.3440   101.2270 N.ar      1  UNK         0.0000
    60 C15         91.6800    82.2680   101.2230 C.ar      1  UNK         0.0000
    61 H21         91.5860    83.2400   101.6890 H         1  UNK         0.0000
    62 N4          92.7670    81.8200   100.5760 N.ar      1  UNK         0.0000
    63 C16         92.3700    80.6020   100.1370 C.ar      1  UNK         0.0000
    64 C17         91.0880    80.2870   100.4980 C.ar      1  UNK         0.0000
    65 N5          90.5000    79.1280   100.1410 N.ar      1  UNK         0.0000
    66 C18         91.2750    78.2960    99.4050 C.ar      1  UNK         0.0000
    67 H22         90.8240    77.3520    99.1020 H         1  UNK         0.0000
    68 N6          92.5520    78.5140    99.0030 N.ar      1  UNK         0.0000
    69 C19         93.1140    79.6850    99.3710 C.ar      1  UNK         0.0000
    70 N7          94.4040    79.9570    98.9820 N.pl3     1  UNK         0.0000
    71 H23         94.8810    80.7250    99.4310 H         1  UNK         0.0000
    72 H24         94.9540    79.1960    98.6110 H         1  UNK         0.0000
    73 C20         88.2870    90.0030   106.5660 C.3       1  UNK         0.0000
    74 H25         88.7920    89.7160   107.4990 H         1  UNK         0.0000
    75 O16         86.9390    90.3900   106.8310 O.3       1  UNK         0.0000
    76 H26         86.6400    89.9330   107.6380 H         1  UNK         0.0000
    77 C21         89.0640    91.1540   105.8980 C.3       1  UNK         0.0000
    78 H27         88.3730    91.7530   105.2890 H         1  UNK         0.0000
    79 O17         89.7480    91.9830   106.8390 O.3       1  UNK         0.0000
    80 H28         89.0820    92.3420   107.4560 H         1  UNK         0.0000
@<TRIPOS>BOND
     1     1     2   1
     2     1     3   1
     3     1     4  am
     4     4     5   2
     5     4     6   1
     6     6     7  ar
     7     6    14  ar
     8     7     8   1
     9     7     9  ar
    10     9    10   1
    11     9    11  ar
    12    11    12   1
    13    11    13  ar
    14    13    14  ar
    15    13    16   1
    16    14    15   1
    17    16    17   1
    18    16    18   1
    19    16    77   1
    20    18    19   1
    21    19    20   1
    22    19    21   1
    23    19    73   1
    24    21    22   1
    25    21    23   1
    26    21    24   1
    27    24    25   1
    28    25    26   1
    29    25    28   1
    30    25    30   1
    31    26    27   1
    32    28    29   1
    33    30    31   1
    34    31    32   1
    35    31    34   1
    36    31    36   1
    37    32    33   1
    38    34    35   1
    39    36    37   1
    40    37    38   1
    41    37    39   1
    42    37    40   1
    43    40    41   1
    44    40    42   1
    45    40    55   1
    46    42    43   1
    47    43    44   1
    48    43    45   1
    49    43    59   1
    50    45    46   1
    51    45    47   1
    52    45    55   1
    53    47    48   1
    54    48    49   1
    55    48    51   1
    56    48    53   1
    57    49    50   1
    58    51    52   1
    59    53    54   1
    60    55    56   1
    61    55    57   1
    62    57    58   1
    63    59    60   1
    64    59    64   1
    65    60    61   1
    66    60    62   2
    67    62    63   1
    68    63    64  ar
    69    63    69  ar
    70    64    65  ar
    71    65    66  ar
    72    66    67   1
    73    66    68  ar
    74    68    69  ar
    75    69    70   1
    76    70    71   1
    77    70    72   1
    78    73    74   1
    79    73    75   1
    80    73    77   1
    81    75    76   1
    82    77    78   1
    83    77    79   1
    84    79    80   1

