@<TRIPOS>COMMENT
   inp11.mol2              1    of   10
                  SCORE =  -237.6062
               dG-SCORE =    -5.5844
      LIGAND_EFFICIENCY =    -1.0800
  NUMBER_OF_HEAVY_ATOMS =         22
                    ASA =  -203.4936
                    ELE =     0.0000
                    HYD =   -30.4480
                    VDW =    -3.6646
                   RMSD =    55.1085
 MOLECULAR_WEIGHT = 332.29
@<TRIPOS>MOLECULE
inp11.mol2                                                                      
   43   44    0    0    0
SMALL       
GASTEIGER      
 
@<TRIPOS>ATOM
    1 P       -62.6063   -4.4306  -61.4058 P.3      1 UNK          0.0000
    2 O       -60.7315   -0.5414  -62.3525 O.3      1 UNK          0.0000
    3 O       -62.1088   -2.9079  -61.1542 O.3      1 UNK          0.0000
    4 O       -62.0243   -5.6903  -60.6070 O.3      1 UNK          0.0000
    5 H       -61.3169   -5.3592  -60.0387 H        1 UNK          0.0000
    6 O       -61.0554   -4.5114  -61.8002 O.3      1 UNK          0.0000
    7 H       -60.5661   -4.0719  -61.0941 H        1 UNK          0.0000
    8 O       -63.1033   -4.1629  -59.9013 O.3      1 UNK          0.0000
    9 H       -63.7274   -4.8636  -59.6455 H        1 UNK          0.0000
   10 O       -56.0215   -2.6813  -62.0936 O.2      1 UNK          0.0000
   11 N       -58.7178    0.6481  -62.7416 N.ar     1 UNK          0.0000
   12 N       -54.4147   -1.9263  -63.4170 N.am     1 UNK          0.0000
   13 H       -53.8626   -2.7438  -63.2036 H        1 UNK          0.0000
   14 H       -54.0497   -1.2281  -64.0499 H        1 UNK          0.0000
   15 C       -62.5206    0.8230  -62.3349 C.3      1 UNK          0.0000
   16 H       -63.1839    1.3481  -61.6325 H        1 UNK          0.0000
   17 C       -61.2270    1.6340  -62.6183 C.3      1 UNK          0.0000
   18 H       -61.1127    1.7140  -63.7038 H        1 UNK          0.0000
   19 C       -61.9856   -0.4802  -61.6687 C.3      1 UNK          0.0000
   20 H       -61.8404   -0.3110  -60.5890 H        1 UNK          0.0000
   21 C       -60.0849    0.7018  -62.0963 C.3      1 UNK          0.0000
   22 H       -59.9779    0.7734  -61.0086 H        1 UNK          0.0000
   23 C       -63.2441    0.6463  -63.6946 C.3      1 UNK          0.0000
   24 H       -64.2024    0.1287  -63.5679 H        1 UNK          0.0000
   25 H       -62.6193    0.0657  -64.3849 H        1 UNK          0.0000
   26 H       -63.4368    1.6213  -64.1581 H        1 UNK          0.0000
   27 C       -61.3850    3.0604  -62.0392 C.3      1 UNK          0.0000
   28 H       -62.2363    3.5739  -62.4968 H        1 UNK          0.0000
   29 H       -61.5737    3.0306  -60.9572 H        1 UNK          0.0000
   30 H       -60.5054    3.6659  -62.2412 H        1 UNK          0.0000
   31 C       -62.7350   -1.8274  -61.8906 C.3      1 UNK          0.0000
   32 H       -63.7844   -1.7274  -61.5861 H        1 UNK          0.0000
   33 H       -62.7061   -2.0687  -62.9602 H        1 UNK          0.0000
   34 C       -57.8890   -0.5258  -62.6524 C.ar     1 UNK          0.0000
   35 H       -58.2799   -1.3987  -62.1260 H        1 UNK          0.0000
   36 C       -58.1730    1.7477  -63.4589 C.ar     1 UNK          0.0000
   37 H       -58.7618    2.6432  -63.5238 H        1 UNK          0.0000
   38 C       -56.5448   -0.5913  -63.1531 C.ar     1 UNK          0.0000
   39 C       -56.8979    1.6397  -64.1044 C.ar     1 UNK          0.0000
   40 H       -56.5490    2.4553  -64.7345 H        1 UNK          0.0000
   41 C       -56.0799    0.5105  -63.9296 C.ar     1 UNK          0.0000
   42 H       -55.0940    0.4676  -64.3813 H        1 UNK          0.0000
   43 C       -55.6701   -1.7839  -62.8504 C.2      1 UNK          0.0000
@<TRIPOS>BOND
     1     1     3   1 
     2     1     4   1 
     3     1     6   1 
     4     1     8   1 
     5     2    19   1 
     6     2    21   1 
     7     3    31   1 
     8     4     5   1 
     9     6     7   1 
    10     8     9   1 
    11    10    43   2 
    12    11    21   1 
    13    11    34   ar
    14    11    36   ar
    15    12    13   1 
    16    12    14   1 
    17    12    43   am
    18    15    16   1 
    19    15    17   1 
    20    15    19   1 
    21    15    23   1 
    22    17    18   1 
    23    17    21   1 
    24    17    27   1 
    25    19    20   1 
    26    19    31   1 
    27    21    22   1 
    28    23    24   1 
    29    23    25   1 
    30    23    26   1 
    31    27    28   1 
    32    27    29   1 
    33    27    30   1 
    34    31    32   1 
    35    31    33   1 
    36    34    35   1 
    37    34    38   ar
    38    36    37   1 
    39    36    39   ar
    40    38    41   ar
    41    38    43   1 
    42    39    40   1 
    43    39    41   ar
    44    41    42   1 
 
