@<TRIPOS>COMMENT
   inp11.mol2              6    of   10
                  SCORE =  -209.2952
               dG-SCORE =    -5.3173
      LIGAND_EFFICIENCY =    -0.9513
  NUMBER_OF_HEAVY_ATOMS =         22
                    ASA =  -144.2071
                    ELE =     0.0000
                    HYD =   -61.5836
                    VDW =    -3.5046
                   RMSD =    53.7839
 MOLECULAR_WEIGHT = 332.29
@<TRIPOS>MOLECULE
inp11.mol2                                                                      
   43   44    0    0    0
SMALL       
GASTEIGER      
 
@<TRIPOS>ATOM
    1 P       -57.0450   -3.8623  -62.2725 P.3      1 UNK          0.0000
    2 O       -61.2037   -2.9539  -60.6458 O.3      1 UNK          0.0000
    3 O       -58.4593   -4.2434  -61.5328 O.3      1 UNK          0.0000
    4 O       -55.8107   -3.2209  -61.4580 O.3      1 UNK          0.0000
    5 H       -56.0153   -3.2025  -60.5055 H        1 UNK          0.0000
    6 O       -57.4536   -2.3535  -61.9812 O.3      1 UNK          0.0000
    7 H       -57.5810   -2.2917  -61.0157 H        1 UNK          0.0000
    8 O       -56.5497   -4.8267  -61.1184 O.3      1 UNK          0.0000
    9 H       -55.7769   -5.3051  -61.4604 H        1 UNK          0.0000
   10 O       -60.1208    1.3747  -58.0680 O.2      1 UNK          0.0000
   11 N       -62.8381   -1.4410  -59.6302 N.ar     1 UNK          0.0000
   12 N       -61.3174    3.1367  -58.1307 N.am     1 UNK          0.0000
   13 H       -60.5808    3.6303  -57.6518 H        1 UNK          0.0000
   14 H       -62.1113    3.6493  -58.4640 H        1 UNK          0.0000
   15 C       -62.3977   -4.6126  -61.6692 C.3      1 UNK          0.0000
   16 H       -62.5839   -5.6760  -61.4664 H        1 UNK          0.0000
   17 C       -63.3316   -3.7091  -60.8039 C.3      1 UNK          0.0000
   18 H       -63.8592   -3.0225  -61.4809 H        1 UNK          0.0000
   19 C       -60.9739   -4.2849  -61.1703 C.3      1 UNK          0.0000
   20 H       -60.7920   -5.0009  -60.3703 H        1 UNK          0.0000
   21 C       -62.4140   -2.8491  -59.8825 C.3      1 UNK          0.0000
   22 H       -62.2575   -3.3469  -58.9151 H        1 UNK          0.0000
   23 C       -62.6251   -4.3551  -63.1826 C.3      1 UNK          0.0000
   24 H       -61.9674   -4.9950  -63.7837 H        1 UNK          0.0000
   25 H       -62.4173   -3.3080  -63.4388 H        1 UNK          0.0000
   26 H       -63.6604   -4.5805  -63.4651 H        1 UNK          0.0000
   27 C       -64.3712   -4.4883  -59.9730 C.3      1 UNK          0.0000
   28 H       -65.0281   -5.0716  -60.6320 H        1 UNK          0.0000
   29 H       -63.8765   -5.1786  -59.2798 H        1 UNK          0.0000
   30 H       -65.0006   -3.8098  -59.3836 H        1 UNK          0.0000
   31 C       -59.7650   -4.3227  -62.1854 C.3      1 UNK          0.0000
   32 H       -59.8035   -5.2523  -62.7508 H        1 UNK          0.0000
   33 H       -59.8811   -3.5070  -62.9115 H        1 UNK          0.0000
   34 C       -61.8746   -0.4587  -59.1785 C.ar     1 UNK          0.0000
   35 H       -60.8777   -0.8159  -58.9851 H        1 UNK          0.0000
   36 C       -64.1884   -0.9384  -59.7804 C.ar     1 UNK          0.0000
   37 H       -64.9741   -1.6591  -60.0433 H        1 UNK          0.0000
   38 C       -62.2055    0.8962  -58.9754 C.ar     1 UNK          0.0000
   39 C       -64.5221    0.4223  -59.6102 C.ar     1 UNK          0.0000
   40 H       -65.5455    0.7732  -59.7191 H        1 UNK          0.0000
   41 C       -63.5056    1.3763  -59.2705 C.ar     1 UNK          0.0000
   42 H       -63.7416    2.4131  -59.2097 H        1 UNK          0.0000
   43 C       -61.1708    1.8131  -58.3669 C.2      1 UNK          0.0000
@<TRIPOS>BOND
     1     1     3   1 
     2     1     4   1 
     3     1     6   1 
     4     1     8   1 
     5     2    19   1 
     6     2    21   1 
     7     3    31   1 
     8     4     5   1 
     9     6     7   1 
    10     8     9   1 
    11    10    43   2 
    12    11    21   1 
    13    11    34   ar
    14    11    36   ar
    15    12    13   1 
    16    12    14   1 
    17    12    43   am
    18    15    16   1 
    19    15    17   1 
    20    15    19   1 
    21    15    23   1 
    22    17    18   1 
    23    17    21   1 
    24    17    27   1 
    25    19    20   1 
    26    19    31   1 
    27    21    22   1 
    28    23    24   1 
    29    23    25   1 
    30    23    26   1 
    31    27    28   1 
    32    27    29   1 
    33    27    30   1 
    34    31    32   1 
    35    31    33   1 
    36    34    35   1 
    37    34    38   ar
    38    36    37   1 
    39    36    39   ar
    40    38    41   ar
    41    38    43   1 
    42    39    40   1 
    43    39    41   ar
    44    41    42   1 
 
