@<TRIPOS>COMMENT
   inp11.mol2              7    of   10
                  SCORE =  -222.3821
               dG-SCORE =    -5.2886
      LIGAND_EFFICIENCY =    -1.0108
  NUMBER_OF_HEAVY_ATOMS =         22
                    ASA =  -181.0980
                    ELE =     0.0000
                    HYD =   -37.4426
                    VDW =    -3.8416
                   RMSD =    52.0384
 MOLECULAR_WEIGHT = 332.29
@<TRIPOS>MOLECULE
inp11.mol2                                                                      
   43   44    0    0    0
SMALL       
GASTEIGER      
 
@<TRIPOS>ATOM
    1 P       -61.3464   -4.1880  -55.3765 P.3      1 UNK          0.0000
    2 O       -62.8808   -1.7714  -58.7418 O.3      1 UNK          0.0000
    3 O       -62.3861   -3.3031  -56.2355 O.3      1 UNK          0.0000
    4 O       -61.0909   -3.9097  -53.8470 O.3      1 UNK          0.0000
    5 H       -61.7254   -3.2051  -53.6174 H        1 UNK          0.0000
    6 O       -60.6620   -2.7452  -55.3426 O.3      1 UNK          0.0000
    7 H       -61.3799   -2.0889  -55.3950 H        1 UNK          0.0000
    8 O       -62.7245   -4.5502  -54.6452 O.3      1 UNK          0.0000
    9 H       -62.5261   -4.9020  -53.7668 H        1 UNK          0.0000
   10 O       -61.2284    2.3828  -57.0701 O.2      1 UNK          0.0000
   11 N       -63.1661    0.1471  -60.0649 N.ar     1 UNK          0.0000
   12 N       -60.6043    4.0465  -58.2537 N.am     1 UNK          0.0000
   13 H       -60.1228    4.4225  -57.4562 H        1 UNK          0.0000
   14 H       -60.6063    4.5442  -59.1234 H        1 UNK          0.0000
   15 C       -63.7396   -3.5716  -59.9111 C.3      1 UNK          0.0000
   16 H       -64.6385   -4.2033  -59.8984 H        1 UNK          0.0000
   17 C       -63.9878   -2.2528  -60.6929 C.3      1 UNK          0.0000
   18 H       -63.2100   -2.1605  -61.4622 H        1 UNK          0.0000
   19 C       -63.5075   -3.0108  -58.4709 C.3      1 UNK          0.0000
   20 H       -64.4664   -2.8775  -57.9548 H        1 UNK          0.0000
   21 C       -63.7809   -1.1319  -59.6356 C.3      1 UNK          0.0000
   22 H       -64.7198   -0.9230  -59.0997 H        1 UNK          0.0000
   23 C       -62.6070   -4.3857  -60.6205 C.3      1 UNK          0.0000
   24 H       -62.4934   -5.3789  -60.1844 H        1 UNK          0.0000
   25 H       -61.6435   -3.8666  -60.5795 H        1 UNK          0.0000
   26 H       -62.8523   -4.5505  -61.6761 H        1 UNK          0.0000
   27 C       -65.3852   -2.1911  -61.3554 C.3      1 UNK          0.0000
   28 H       -65.4881   -2.9846  -62.1077 H        1 UNK          0.0000
   29 H       -66.1772   -2.3290  -60.6072 H        1 UNK          0.0000
   30 H       -65.5517   -1.2278  -61.8520 H        1 UNK          0.0000
   31 C       -62.5418   -3.7586  -57.5809 C.3      1 UNK          0.0000
   32 H       -62.8689   -4.8014  -57.5448 H        1 UNK          0.0000
   33 H       -61.5696   -3.7025  -58.0833 H        1 UNK          0.0000
   34 C       -62.4936    0.9144  -59.0765 C.ar     1 UNK          0.0000
   35 H       -62.4243    0.4895  -58.0847 H        1 UNK          0.0000
   36 C       -63.1828    0.6369  -61.4068 C.ar     1 UNK          0.0000
   37 H       -63.6792    0.0441  -62.1740 H        1 UNK          0.0000
   38 C       -61.8942    2.1662  -59.3516 C.ar     1 UNK          0.0000
   39 C       -62.5536    1.8716  -61.7344 C.ar     1 UNK          0.0000
   40 H       -62.5465    2.2287  -62.7606 H        1 UNK          0.0000
   41 C       -61.9360    2.6374  -60.7122 C.ar     1 UNK          0.0000
   42 H       -61.4861    3.5576  -61.0174 H        1 UNK          0.0000
   43 C       -61.2459    2.8507  -58.1653 C.2      1 UNK          0.0000
@<TRIPOS>BOND
     1     1     3   1 
     2     1     4   1 
     3     1     6   1 
     4     1     8   1 
     5     2    19   1 
     6     2    21   1 
     7     3    31   1 
     8     4     5   1 
     9     6     7   1 
    10     8     9   1 
    11    10    43   2 
    12    11    21   1 
    13    11    34   ar
    14    11    36   ar
    15    12    13   1 
    16    12    14   1 
    17    12    43   am
    18    15    16   1 
    19    15    17   1 
    20    15    19   1 
    21    15    23   1 
    22    17    18   1 
    23    17    21   1 
    24    17    27   1 
    25    19    20   1 
    26    19    31   1 
    27    21    22   1 
    28    23    24   1 
    29    23    25   1 
    30    23    26   1 
    31    27    28   1 
    32    27    29   1 
    33    27    30   1 
    34    31    32   1 
    35    31    33   1 
    36    34    35   1 
    37    34    38   ar
    38    36    37   1 
    39    36    39   ar
    40    38    41   ar
    41    38    43   1 
    42    39    40   1 
    43    39    41   ar
    44    41    42   1 
 
