#  inp11.mol2              1    of   10
#                 SCORE =  -237.6062
#              dG-SCORE =    -5.5844
#     LIGAND_EFFICIENCY =    -1.0800
# NUMBER_OF_HEAVY_ATOMS =         22
#                   ASA =  -203.4936
#                   ELE =     0.0000
#                   HYD =   -30.4480
#                   VDW =    -3.6646
#                  RMSD =    55.1085
@<TRIPOS>MOLECULE
inp11.mol2                                                                      
   43   44    0    0    0
SMALL       
GASTEIGER      
 
@<TRIPOS>ATOM
    1 P       -62.6063   -4.4306  -61.4058 P.3      1 UNK          0.0000
    2 O       -60.7315   -0.5414  -62.3525 O.3      1 UNK          0.0000
    3 O       -62.1088   -2.9079  -61.1542 O.3      1 UNK          0.0000
    4 O       -62.0243   -5.6903  -60.6070 O.3      1 UNK          0.0000
    5 H       -61.3169   -5.3592  -60.0387 H        1 UNK          0.0000
    6 O       -61.0554   -4.5114  -61.8002 O.3      1 UNK          0.0000
    7 H       -60.5661   -4.0719  -61.0941 H        1 UNK          0.0000
    8 O       -63.1033   -4.1629  -59.9013 O.3      1 UNK          0.0000
    9 H       -63.7274   -4.8636  -59.6455 H        1 UNK          0.0000
   10 O       -56.0215   -2.6813  -62.0936 O.2      1 UNK          0.0000
   11 N       -58.7178    0.6481  -62.7416 N.ar     1 UNK          0.0000
   12 N       -54.4147   -1.9263  -63.4170 N.am     1 UNK          0.0000
   13 H       -53.8626   -2.7438  -63.2036 H        1 UNK          0.0000
   14 H       -54.0497   -1.2281  -64.0499 H        1 UNK          0.0000
   15 C       -62.5206    0.8230  -62.3349 C.3      1 UNK          0.0000
   16 H       -63.1839    1.3481  -61.6325 H        1 UNK          0.0000
   17 C       -61.2270    1.6340  -62.6183 C.3      1 UNK          0.0000
   18 H       -61.1127    1.7140  -63.7038 H        1 UNK          0.0000
   19 C       -61.9856   -0.4802  -61.6687 C.3      1 UNK          0.0000
   20 H       -61.8404   -0.3110  -60.5890 H        1 UNK          0.0000
   21 C       -60.0849    0.7018  -62.0963 C.3      1 UNK          0.0000
   22 H       -59.9779    0.7734  -61.0086 H        1 UNK          0.0000
   23 C       -63.2441    0.6463  -63.6946 C.3      1 UNK          0.0000
   24 H       -64.2024    0.1287  -63.5679 H        1 UNK          0.0000
   25 H       -62.6193    0.0657  -64.3849 H        1 UNK          0.0000
   26 H       -63.4368    1.6213  -64.1581 H        1 UNK          0.0000
   27 C       -61.3850    3.0604  -62.0392 C.3      1 UNK          0.0000
   28 H       -62.2363    3.5739  -62.4968 H        1 UNK          0.0000
   29 H       -61.5737    3.0306  -60.9572 H        1 UNK          0.0000
   30 H       -60.5054    3.6659  -62.2412 H        1 UNK          0.0000
   31 C       -62.7350   -1.8274  -61.8906 C.3      1 UNK          0.0000
   32 H       -63.7844   -1.7274  -61.5861 H        1 UNK          0.0000
   33 H       -62.7061   -2.0687  -62.9602 H        1 UNK          0.0000
   34 C       -57.8890   -0.5258  -62.6524 C.ar     1 UNK          0.0000
   35 H       -58.2799   -1.3987  -62.1260 H        1 UNK          0.0000
   36 C       -58.1730    1.7477  -63.4589 C.ar     1 UNK          0.0000
   37 H       -58.7618    2.6432  -63.5238 H        1 UNK          0.0000
   38 C       -56.5448   -0.5913  -63.1531 C.ar     1 UNK          0.0000
   39 C       -56.8979    1.6397  -64.1044 C.ar     1 UNK          0.0000
   40 H       -56.5490    2.4553  -64.7345 H        1 UNK          0.0000
   41 C       -56.0799    0.5105  -63.9296 C.ar     1 UNK          0.0000
   42 H       -55.0940    0.4676  -64.3813 H        1 UNK          0.0000
   43 C       -55.6701   -1.7839  -62.8504 C.2      1 UNK          0.0000
@<TRIPOS>BOND
     1     1     3   1 
     2     1     4   1 
     3     1     6   1 
     4     1     8   1 
     5     2    19   1 
     6     2    21   1 
     7     3    31   1 
     8     4     5   1 
     9     6     7   1 
    10     8     9   1 
    11    10    43   2 
    12    11    21   1 
    13    11    34   ar
    14    11    36   ar
    15    12    13   1 
    16    12    14   1 
    17    12    43   am
    18    15    16   1 
    19    15    17   1 
    20    15    19   1 
    21    15    23   1 
    22    17    18   1 
    23    17    21   1 
    24    17    27   1 
    25    19    20   1 
    26    19    31   1 
    27    21    22   1 
    28    23    24   1 
    29    23    25   1 
    30    23    26   1 
    31    27    28   1 
    32    27    29   1 
    33    27    30   1 
    34    31    32   1 
    35    31    33   1 
    36    34    35   1 
    37    34    38   ar
    38    36    37   1 
    39    36    39   ar
    40    38    41   ar
    41    38    43   1 
    42    39    40   1 
    43    39    41   ar
    44    41    42   1 
#MOLECULE END
 
#  inp11.mol2              2    of   10
#                 SCORE =  -233.5605
#              dG-SCORE =    -5.6716
#     LIGAND_EFFICIENCY =    -1.0616
# NUMBER_OF_HEAVY_ATOMS =         22
#                   ASA =  -187.2097
#                   ELE =     0.0000
#                   HYD =   -42.9270
#                   VDW =    -3.4237
#                  RMSD =    53.6043
@<TRIPOS>MOLECULE
inp11.mol2                                                                      
   43   44    0    0    0
SMALL       
GASTEIGER      
 
@<TRIPOS>ATOM
    1 P       -56.8309    1.1903  -62.8088 P.3      1 UNK          0.0000
    2 O       -61.0508    0.6889  -61.1937 O.3      1 UNK          0.0000
    3 O       -58.3733    0.6951  -62.7811 O.3      1 UNK          0.0000
    4 O       -55.6251    0.1873  -62.4615 O.3      1 UNK          0.0000
    5 H       -55.9747   -0.7143  -62.3520 H        1 UNK          0.0000
    6 O       -57.0788    0.6975  -61.3249 O.3      1 UNK          0.0000
    7 H       -57.4356   -0.2106  -61.3888 H        1 UNK          0.0000
    8 O       -56.8325    0.1939  -64.0556 O.3      1 UNK          0.0000
    9 H       -55.9122    0.0751  -64.3447 H        1 UNK          0.0000
   10 O       -60.4307   -2.2075  -56.7589 O.2      1 UNK          0.0000
   11 N       -62.8883   -0.3206  -59.8340 N.ar     1 UNK          0.0000
   12 N       -61.9661   -2.8049  -55.4439 N.am     1 UNK          0.0000
   13 H       -61.2147   -3.1316  -54.8585 H        1 UNK          0.0000
   14 H       -62.9152   -2.8270  -55.1151 H        1 UNK          0.0000
   15 C       -62.0847    1.8393  -62.9073 C.3      1 UNK          0.0000
   16 H       -62.3127    1.7717  -63.9809 H        1 UNK          0.0000
   17 C       -63.1495    1.1101  -62.0386 C.3      1 UNK          0.0000
   18 H       -63.5734    1.8489  -61.3503 H        1 UNK          0.0000
   19 C       -60.8247    0.9887  -62.5906 C.3      1 UNK          0.0000
   20 H       -60.8797    0.0604  -63.1756 H        1 UNK          0.0000
   21 C       -62.3494    0.0884  -61.2005 C.3      1 UNK          0.0000
   22 H       -62.2860   -0.8455  -61.7748 H        1 UNK          0.0000
   23 C       -62.0018    3.3354  -62.4981 C.3      1 UNK          0.0000
   24 H       -61.0956    3.7870  -62.8967 H        1 UNK          0.0000
   25 H       -61.9622    3.4357  -61.4138 H        1 UNK          0.0000
   26 H       -62.8582    3.9150  -62.8686 H        1 UNK          0.0000
   27 C       -64.2417    0.3805  -62.8781 C.3      1 UNK          0.0000
   28 H       -64.7621    1.0707  -63.5485 H        1 UNK          0.0000
   29 H       -63.8045   -0.3969  -63.5100 H        1 UNK          0.0000
   30 H       -64.9877   -0.1111  -62.2357 H        1 UNK          0.0000
   31 C       -59.4452    1.6502  -62.8375 C.3      1 UNK          0.0000
   32 H       -59.4287    2.1302  -63.8023 H        1 UNK          0.0000
   33 H       -59.2890    2.4232  -62.0970 H        1 UNK          0.0000
   34 C       -62.0585   -1.0446  -58.9355 C.ar     1 UNK          0.0000
   35 H       -61.0119   -1.1205  -59.1629 H        1 UNK          0.0000
   36 C       -64.2503   -0.0692  -59.4768 C.ar     1 UNK          0.0000
   37 H       -64.8820    0.5484  -60.0950 H        1 UNK          0.0000
   38 C       -62.5695   -1.6647  -57.7123 C.ar     1 UNK          0.0000
   39 C       -64.8032   -0.6685  -58.2922 C.ar     1 UNK          0.0000
   40 H       -65.8317   -0.4447  -58.0181 H        1 UNK          0.0000
   41 C       -63.9927   -1.4991  -57.4772 C.ar     1 UNK          0.0000
   42 H       -64.4556   -1.9395  -56.5778 H        1 UNK          0.0000
   43 C       -61.6218   -2.2582  -56.6794 C.2      1 UNK          0.0000
@<TRIPOS>BOND
     1     1     3   1 
     2     1     4   1 
     3     1     6   1 
     4     1     8   1 
     5     2    19   1 
     6     2    21   1 
     7     3    31   1 
     8     4     5   1 
     9     6     7   1 
    10     8     9   1 
    11    10    43   2 
    12    11    21   1 
    13    11    34   ar
    14    11    36   ar
    15    12    13   1 
    16    12    14   1 
    17    12    43   am
    18    15    16   1 
    19    15    17   1 
    20    15    19   1 
    21    15    23   1 
    22    17    18   1 
    23    17    21   1 
    24    17    27   1 
    25    19    20   1 
    26    19    31   1 
    27    21    22   1 
    28    23    24   1 
    29    23    25   1 
    30    23    26   1 
    31    27    28   1 
    32    27    29   1 
    33    27    30   1 
    34    31    32   1 
    35    31    33   1 
    36    34    35   1 
    37    34    38   ar
    38    36    37   1 
    39    36    39   ar
    40    38    41   ar
    41    38    43   1 
    42    39    40   1 
    43    39    41   ar
    44    41    42   1 
#MOLECULE END
 
#  inp11.mol2              3    of   10
#                 SCORE =  -230.7749
#              dG-SCORE =    -5.4655
#     LIGAND_EFFICIENCY =    -1.0490
# NUMBER_OF_HEAVY_ATOMS =         22
#                   ASA =  -192.1111
#                   ELE =     0.0000
#                   HYD =   -34.7706
#                   VDW =    -3.8931
#                  RMSD =    52.0948
@<TRIPOS>MOLECULE
inp11.mol2                                                                      
   43   44    0    0    0
SMALL       
GASTEIGER      
 
@<TRIPOS>ATOM
    1 P       -61.2463    0.9101  -61.4042 P.3      1 UNK          0.0000
    2 O       -63.0828   -2.0075  -58.7144 O.3      1 UNK          0.0000
    3 O       -61.9626   -0.4458  -60.9265 O.3      1 UNK          0.0000
    4 O       -59.6987    0.8908  -61.8304 O.3      1 UNK          0.0000
    5 H       -59.4055   -0.0188  -61.9478 H        1 UNK          0.0000
    6 O       -60.5990    0.5320  -59.9797 O.3      1 UNK          0.0000
    7 H       -60.4197   -0.4185  -59.9541 H        1 UNK          0.0000
    8 O       -61.1648   -0.0077  -62.7183 O.3      1 UNK          0.0000
    9 H       -60.7068    0.4833  -63.4201 H        1 UNK          0.0000
   10 O       -59.3002   -2.4987  -55.7075 O.2      1 UNK          0.0000
   11 N       -63.2376   -3.3920  -56.7373 N.ar     1 UNK          0.0000
   12 N       -59.3447   -3.0028  -53.6006 N.am     1 UNK          0.0000
   13 H       -58.4386   -2.5886  -53.5024 H        1 UNK          0.0000
   14 H       -59.7722   -3.4320  -52.8146 H        1 UNK          0.0000
   15 C       -65.2011   -2.0886  -59.6911 C.3      1 UNK          0.0000
   16 H       -65.6538   -2.5923  -60.5565 H        1 UNK          0.0000
   17 C       -65.1477   -3.0361  -58.4598 C.3      1 UNK          0.0000
   18 H       -65.6073   -2.5162  -57.6089 H        1 UNK          0.0000
   19 C       -63.6989   -1.8328  -59.9990 C.3      1 UNK          0.0000
   20 H       -63.3370   -2.6173  -60.6807 H        1 UNK          0.0000
   21 C       -63.6333   -3.2161  -58.1684 C.3      1 UNK          0.0000
   22 H       -63.2452   -4.0629  -58.7523 H        1 UNK          0.0000
   23 C       -66.0467   -0.8188  -59.3727 C.3      1 UNK          0.0000
   24 H       -66.1189   -0.1694  -60.2545 H        1 UNK          0.0000
   25 H       -65.5984   -0.2391  -58.5565 H        1 UNK          0.0000
   26 H       -67.0669   -1.0941  -59.0799 H        1 UNK          0.0000
   27 C       -65.8726   -4.3915  -58.6779 C.3      1 UNK          0.0000
   28 H       -66.9419   -4.2314  -58.8715 H        1 UNK          0.0000
   29 H       -65.4501   -4.9321  -59.5355 H        1 UNK          0.0000
   30 H       -65.7849   -5.0405  -57.7976 H        1 UNK          0.0000
   31 C       -63.3483   -0.4425  -60.5834 C.3      1 UNK          0.0000
   32 H       -63.9477   -0.2489  -61.4821 H        1 UNK          0.0000
   33 H       -63.5510    0.3400  -59.8408 H        1 UNK          0.0000
   34 C       -61.9066   -3.0810  -56.3673 C.ar     1 UNK          0.0000
   35 H       -61.2652   -2.6318  -57.1304 H        1 UNK          0.0000
   36 C       -64.1314   -3.8326  -55.6953 C.ar     1 UNK          0.0000
   37 H       -65.1674   -4.0427  -55.9426 H        1 UNK          0.0000
   38 C       -61.4060   -3.2971  -55.0483 C.ar     1 UNK          0.0000
   39 C       -63.6751   -3.9795  -54.3540 C.ar     1 UNK          0.0000
   40 H       -64.3747   -4.2348  -53.5645 H        1 UNK          0.0000
   41 C       -62.3113   -3.7898  -54.0493 C.ar     1 UNK          0.0000
   42 H       -61.9875   -3.9897  -53.0508 H        1 UNK          0.0000
   43 C       -59.9768   -2.9217  -54.8021 C.2      1 UNK          0.0000
@<TRIPOS>BOND
     1     1     3   1 
     2     1     4   1 
     3     1     6   1 
     4     1     8   1 
     5     2    19   1 
     6     2    21   1 
     7     3    31   1 
     8     4     5   1 
     9     6     7   1 
    10     8     9   1 
    11    10    43   2 
    12    11    21   1 
    13    11    34   ar
    14    11    36   ar
    15    12    13   1 
    16    12    14   1 
    17    12    43   am
    18    15    16   1 
    19    15    17   1 
    20    15    19   1 
    21    15    23   1 
    22    17    18   1 
    23    17    21   1 
    24    17    27   1 
    25    19    20   1 
    26    19    31   1 
    27    21    22   1 
    28    23    24   1 
    29    23    25   1 
    30    23    26   1 
    31    27    28   1 
    32    27    29   1 
    33    27    30   1 
    34    31    32   1 
    35    31    33   1 
    36    34    35   1 
    37    34    38   ar
    38    36    37   1 
    39    36    39   ar
    40    38    41   ar
    41    38    43   1 
    42    39    40   1 
    43    39    41   ar
    44    41    42   1 
#MOLECULE END
 
#  inp11.mol2              4    of   10
#                 SCORE =  -228.1006
#              dG-SCORE =    -5.4057
#     LIGAND_EFFICIENCY =    -1.0368
# NUMBER_OF_HEAVY_ATOMS =         22
#                   ASA =  -188.7245
#                   ELE =     0.0000
#                   HYD =   -35.4607
#                   VDW =    -3.9153
#                  RMSD =    53.5088
@<TRIPOS>MOLECULE
inp11.mol2                                                                      
   43   44    0    0    0
SMALL       
GASTEIGER      
 
@<TRIPOS>ATOM
    1 P       -65.9881    6.0985  -60.7527 P.3      1 UNK          0.0000
    2 O       -63.3155    2.5919  -60.7576 O.3      1 UNK          0.0000
    3 O       -64.5819    5.3220  -60.5096 O.3      1 UNK          0.0000
    4 O       -66.8941    6.6401  -59.5614 O.3      1 UNK          0.0000
    5 H       -66.5144    6.3339  -58.7243 H        1 UNK          0.0000
    6 O       -66.5251    4.7379  -60.0774 O.3      1 UNK          0.0000
    7 H       -65.9800    4.5197  -59.3131 H        1 UNK          0.0000
    8 O       -65.1460    7.2643  -60.0943 O.3      1 UNK          0.0000
    9 H       -65.6117    8.0919  -60.2848 H        1 UNK          0.0000
   10 O       -66.2166    0.1111  -57.7738 O.2      1 UNK          0.0000
   11 N       -62.6448    0.4546  -60.1204 N.ar     1 UNK          0.0000
   12 N       -66.1693   -2.0842  -57.6198 N.am     1 UNK          0.0000
   13 H       -66.9910   -2.0519  -57.0257 H        1 UNK          0.0000
   14 H       -65.7589   -2.9726  -57.8609 H        1 UNK          0.0000
   15 C       -61.8794    3.2403  -62.4167 C.3      1 UNK          0.0000
   16 H       -61.0195    3.9049  -62.5223 H        1 UNK          0.0000
   17 C       -61.4665    1.8568  -61.9188 C.3      1 UNK          0.0000
   18 H       -61.9390    1.1222  -62.5783 H        1 UNK          0.0000
   19 C       -62.7833    3.7750  -61.2860 C.3      1 UNK          0.0000
   20 H       -62.1626    4.2286  -60.5177 H        1 UNK          0.0000
   21 C       -62.1692    1.7737  -60.5181 C.3      1 UNK          0.0000
   22 H       -61.5749    2.2283  -59.7105 H        1 UNK          0.0000
   23 C       -62.5447    2.9664  -63.7745 C.3      1 UNK          0.0000
   24 H       -62.9802    3.8813  -64.1815 H        1 UNK          0.0000
   25 H       -63.2912    2.1793  -63.6979 H        1 UNK          0.0000
   26 H       -61.7919    2.5901  -64.4578 H        1 UNK          0.0000
   27 C       -59.9457    1.6224  -61.9969 C.3      1 UNK          0.0000
   28 H       -59.5455    1.7771  -63.0081 H        1 UNK          0.0000
   29 H       -59.4418    2.3433  -61.3433 H        1 UNK          0.0000
   30 H       -59.6598    0.6285  -61.6538 H        1 UNK          0.0000
   31 C       -63.8763    4.7799  -61.6570 C.3      1 UNK          0.0000
   32 H       -63.4623    5.5740  -62.2682 H        1 UNK          0.0000
   33 H       -64.5880    4.2567  -62.2978 H        1 UNK          0.0000
   34 C       -63.8367    0.3457  -59.3133 C.ar     1 UNK          0.0000
   35 H       -64.3248    1.2890  -59.0738 H        1 UNK          0.0000
   36 C       -62.0513   -0.7612  -60.5636 C.ar     1 UNK          0.0000
   37 H       -61.2172   -0.6570  -61.2701 H        1 UNK          0.0000
   38 C       -64.3601   -0.9018  -58.9260 C.ar     1 UNK          0.0000
   39 C       -62.5343   -2.0249  -60.1748 C.ar     1 UNK          0.0000
   40 H       -62.0586   -2.9391  -60.5183 H        1 UNK          0.0000
   41 C       -63.7036   -2.1132  -59.3312 C.ar     1 UNK          0.0000
   42 H       -64.0659   -3.0835  -59.0472 H        1 UNK          0.0000
   43 C       -65.6360   -0.9143  -58.0773 C.2      1 UNK          0.0000
@<TRIPOS>BOND
     1     1     3   1 
     2     1     4   1 
     3     1     6   1 
     4     1     8   1 
     5     2    19   1 
     6     2    21   1 
     7     3    31   1 
     8     4     5   1 
     9     6     7   1 
    10     8     9   1 
    11    10    43   2 
    12    11    21   1 
    13    11    34   ar
    14    11    36   ar
    15    12    13   1 
    16    12    14   1 
    17    12    43   am
    18    15    16   1 
    19    15    17   1 
    20    15    19   1 
    21    15    23   1 
    22    17    18   1 
    23    17    21   1 
    24    17    27   1 
    25    19    20   1 
    26    19    31   1 
    27    21    22   1 
    28    23    24   1 
    29    23    25   1 
    30    23    26   1 
    31    27    28   1 
    32    27    29   1 
    33    27    30   1 
    34    31    32   1 
    35    31    33   1 
    36    34    35   1 
    37    34    38   ar
    38    36    37   1 
    39    36    39   ar
    40    38    41   ar
    41    38    43   1 
    42    39    40   1 
    43    39    41   ar
    44    41    42   1 
#MOLECULE END
 
#  inp11.mol2              5    of   10
#                 SCORE =  -226.5912
#              dG-SCORE =    -5.3476
#     LIGAND_EFFICIENCY =    -1.0300
# NUMBER_OF_HEAVY_ATOMS =         22
#                   ASA =  -188.8432
#                   ELE =     0.0000
#                   HYD =   -33.9642
#                   VDW =    -3.7838
#                  RMSD =    54.9912
@<TRIPOS>MOLECULE
inp11.mol2                                                                      
   43   44    0    0    0
SMALL       
GASTEIGER      
 
@<TRIPOS>ATOM
    1 P       -62.2909    3.3807  -61.1011 P.3      1 UNK          0.0000
    2 O       -61.4231   -0.7333  -61.8259 O.3      1 UNK          0.0000
    3 O       -62.5651    1.8337  -61.4408 O.3      1 UNK          0.0000
    4 O       -62.7087    4.3515  -62.3008 O.3      1 UNK          0.0000
    5 H       -62.6624    3.8755  -63.1413 H        1 UNK          0.0000
    6 O       -61.2209    3.1139  -62.2475 O.3      1 UNK          0.0000
    7 H       -61.5773    2.4684  -62.8680 H        1 UNK          0.0000
    8 O       -63.8555    3.4190  -61.2436 O.3      1 UNK          0.0000
    9 H       -64.1700    4.3393  -61.2494 H        1 UNK          0.0000
   10 O       -57.3449    0.7504  -64.4469 O.2      1 UNK          0.0000
   11 N       -59.8621   -2.3945  -62.7202 N.ar     1 UNK          0.0000
   12 N       -55.4394   -0.3467  -64.2315 N.am     1 UNK          0.0000
   13 H       -54.9509    0.3982  -64.7260 H        1 UNK          0.0000
   14 H       -54.9077   -1.1337  -63.8898 H        1 UNK          0.0000
   15 C       -62.8596   -1.8454  -60.3486 C.3      1 UNK          0.0000
   16 H       -63.9039   -2.1813  -60.4249 H        1 UNK          0.0000
   17 C       -61.9044   -2.8606  -61.0365 C.3      1 UNK          0.0000
   18 H       -61.1288   -3.0881  -60.2970 H        1 UNK          0.0000
   19 C       -62.7075   -0.5511  -61.1968 C.3      1 UNK          0.0000
   20 H       -63.4775   -0.5678  -61.9818 H        1 UNK          0.0000
   21 C       -61.2866   -2.1021  -62.2956 C.3      1 UNK          0.0000
   22 H       -61.9518   -2.2395  -63.1596 H        1 UNK          0.0000
   23 C       -62.5446   -1.6747  -58.8326 C.3      1 UNK          0.0000
   24 H       -63.2827   -0.9909  -58.4044 H        1 UNK          0.0000
   25 H       -61.5491   -1.2520  -58.6596 H        1 UNK          0.0000
   26 H       -62.6184   -2.6282  -58.2951 H        1 UNK          0.0000
   27 C       -62.5616   -4.2027  -61.4077 C.3      1 UNK          0.0000
   28 H       -62.9976   -4.6798  -60.5176 H        1 UNK          0.0000
   29 H       -63.3648   -4.0498  -62.1411 H        1 UNK          0.0000
   30 H       -61.8334   -4.9004  -61.8363 H        1 UNK          0.0000
   31 C       -62.7911    0.8190  -60.4548 C.3      1 UNK          0.0000
   32 H       -63.7850    0.9485  -60.0021 H        1 UNK          0.0000
   33 H       -62.0301    0.8867  -59.6669 H        1 UNK          0.0000
   34 C       -59.0443   -1.3340  -63.3523 C.ar     1 UNK          0.0000
   35 H       -59.5700   -0.4253  -63.6492 H        1 UNK          0.0000
   36 C       -59.1429   -3.6220  -62.3871 C.ar     1 UNK          0.0000
   37 H       -59.7188   -4.4608  -61.9537 H        1 UNK          0.0000
   38 C       -57.6230   -1.4379  -63.4607 C.ar     1 UNK          0.0000
   39 C       -57.7292   -3.7136  -62.4586 C.ar     1 UNK          0.0000
   40 H       -57.2022   -4.5822  -62.0890 H        1 UNK          0.0000
   41 C       -56.9565   -2.6186  -62.9912 C.ar     1 UNK          0.0000
   42 H       -55.8838   -2.7179  -63.0184 H        1 UNK          0.0000
   43 C       -56.8071   -0.2720  -64.0680 C.2      1 UNK          0.0000
@<TRIPOS>BOND
     1     1     3   1 
     2     1     4   1 
     3     1     6   1 
     4     1     8   1 
     5     2    19   1 
     6     2    21   1 
     7     3    31   1 
     8     4     5   1 
     9     6     7   1 
    10     8     9   1 
    11    10    43   2 
    12    11    21   1 
    13    11    34   ar
    14    11    36   ar
    15    12    13   1 
    16    12    14   1 
    17    12    43   am
    18    15    16   1 
    19    15    17   1 
    20    15    19   1 
    21    15    23   1 
    22    17    18   1 
    23    17    21   1 
    24    17    27   1 
    25    19    20   1 
    26    19    31   1 
    27    21    22   1 
    28    23    24   1 
    29    23    25   1 
    30    23    26   1 
    31    27    28   1 
    32    27    29   1 
    33    27    30   1 
    34    31    32   1 
    35    31    33   1 
    36    34    35   1 
    37    34    38   ar
    38    36    37   1 
    39    36    39   ar
    40    38    41   ar
    41    38    43   1 
    42    39    40   1 
    43    39    41   ar
    44    41    42   1 
#MOLECULE END
 
#  inp11.mol2              6    of   10
#                 SCORE =  -209.2952
#              dG-SCORE =    -5.3173
#     LIGAND_EFFICIENCY =    -0.9513
# NUMBER_OF_HEAVY_ATOMS =         22
#                   ASA =  -144.2071
#                   ELE =     0.0000
#                   HYD =   -61.5836
#                   VDW =    -3.5046
#                  RMSD =    53.7839
@<TRIPOS>MOLECULE
inp11.mol2                                                                      
   43   44    0    0    0
SMALL       
GASTEIGER      
 
@<TRIPOS>ATOM
    1 P       -57.0450   -3.8623  -62.2725 P.3      1 UNK          0.0000
    2 O       -61.2037   -2.9539  -60.6458 O.3      1 UNK          0.0000
    3 O       -58.4593   -4.2434  -61.5328 O.3      1 UNK          0.0000
    4 O       -55.8107   -3.2209  -61.4580 O.3      1 UNK          0.0000
    5 H       -56.0153   -3.2025  -60.5055 H        1 UNK          0.0000
    6 O       -57.4536   -2.3535  -61.9812 O.3      1 UNK          0.0000
    7 H       -57.5810   -2.2917  -61.0157 H        1 UNK          0.0000
    8 O       -56.5497   -4.8267  -61.1184 O.3      1 UNK          0.0000
    9 H       -55.7769   -5.3051  -61.4604 H        1 UNK          0.0000
   10 O       -60.1208    1.3747  -58.0680 O.2      1 UNK          0.0000
   11 N       -62.8381   -1.4410  -59.6302 N.ar     1 UNK          0.0000
   12 N       -61.3174    3.1367  -58.1307 N.am     1 UNK          0.0000
   13 H       -60.5808    3.6303  -57.6518 H        1 UNK          0.0000
   14 H       -62.1113    3.6493  -58.4640 H        1 UNK          0.0000
   15 C       -62.3977   -4.6126  -61.6692 C.3      1 UNK          0.0000
   16 H       -62.5839   -5.6760  -61.4664 H        1 UNK          0.0000
   17 C       -63.3316   -3.7091  -60.8039 C.3      1 UNK          0.0000
   18 H       -63.8592   -3.0225  -61.4809 H        1 UNK          0.0000
   19 C       -60.9739   -4.2849  -61.1703 C.3      1 UNK          0.0000
   20 H       -60.7920   -5.0009  -60.3703 H        1 UNK          0.0000
   21 C       -62.4140   -2.8491  -59.8825 C.3      1 UNK          0.0000
   22 H       -62.2575   -3.3469  -58.9151 H        1 UNK          0.0000
   23 C       -62.6251   -4.3551  -63.1826 C.3      1 UNK          0.0000
   24 H       -61.9674   -4.9950  -63.7837 H        1 UNK          0.0000
   25 H       -62.4173   -3.3080  -63.4388 H        1 UNK          0.0000
   26 H       -63.6604   -4.5805  -63.4651 H        1 UNK          0.0000
   27 C       -64.3712   -4.4883  -59.9730 C.3      1 UNK          0.0000
   28 H       -65.0281   -5.0716  -60.6320 H        1 UNK          0.0000
   29 H       -63.8765   -5.1786  -59.2798 H        1 UNK          0.0000
   30 H       -65.0006   -3.8098  -59.3836 H        1 UNK          0.0000
   31 C       -59.7650   -4.3227  -62.1854 C.3      1 UNK          0.0000
   32 H       -59.8035   -5.2523  -62.7508 H        1 UNK          0.0000
   33 H       -59.8811   -3.5070  -62.9115 H        1 UNK          0.0000
   34 C       -61.8746   -0.4587  -59.1785 C.ar     1 UNK          0.0000
   35 H       -60.8777   -0.8159  -58.9851 H        1 UNK          0.0000
   36 C       -64.1884   -0.9384  -59.7804 C.ar     1 UNK          0.0000
   37 H       -64.9741   -1.6591  -60.0433 H        1 UNK          0.0000
   38 C       -62.2055    0.8962  -58.9754 C.ar     1 UNK          0.0000
   39 C       -64.5221    0.4223  -59.6102 C.ar     1 UNK          0.0000
   40 H       -65.5455    0.7732  -59.7191 H        1 UNK          0.0000
   41 C       -63.5056    1.3763  -59.2705 C.ar     1 UNK          0.0000
   42 H       -63.7416    2.4131  -59.2097 H        1 UNK          0.0000
   43 C       -61.1708    1.8131  -58.3669 C.2      1 UNK          0.0000
@<TRIPOS>BOND
     1     1     3   1 
     2     1     4   1 
     3     1     6   1 
     4     1     8   1 
     5     2    19   1 
     6     2    21   1 
     7     3    31   1 
     8     4     5   1 
     9     6     7   1 
    10     8     9   1 
    11    10    43   2 
    12    11    21   1 
    13    11    34   ar
    14    11    36   ar
    15    12    13   1 
    16    12    14   1 
    17    12    43   am
    18    15    16   1 
    19    15    17   1 
    20    15    19   1 
    21    15    23   1 
    22    17    18   1 
    23    17    21   1 
    24    17    27   1 
    25    19    20   1 
    26    19    31   1 
    27    21    22   1 
    28    23    24   1 
    29    23    25   1 
    30    23    26   1 
    31    27    28   1 
    32    27    29   1 
    33    27    30   1 
    34    31    32   1 
    35    31    33   1 
    36    34    35   1 
    37    34    38   ar
    38    36    37   1 
    39    36    39   ar
    40    38    41   ar
    41    38    43   1 
    42    39    40   1 
    43    39    41   ar
    44    41    42   1 
#MOLECULE END
 
#  inp11.mol2              7    of   10
#                 SCORE =  -222.3821
#              dG-SCORE =    -5.2886
#     LIGAND_EFFICIENCY =    -1.0108
# NUMBER_OF_HEAVY_ATOMS =         22
#                   ASA =  -181.0980
#                   ELE =     0.0000
#                   HYD =   -37.4426
#                   VDW =    -3.8416
#                  RMSD =    52.0384
@<TRIPOS>MOLECULE
inp11.mol2                                                                      
   43   44    0    0    0
SMALL       
GASTEIGER      
 
@<TRIPOS>ATOM
    1 P       -61.3464   -4.1880  -55.3765 P.3      1 UNK          0.0000
    2 O       -62.8808   -1.7714  -58.7418 O.3      1 UNK          0.0000
    3 O       -62.3861   -3.3031  -56.2355 O.3      1 UNK          0.0000
    4 O       -61.0909   -3.9097  -53.8470 O.3      1 UNK          0.0000
    5 H       -61.7254   -3.2051  -53.6174 H        1 UNK          0.0000
    6 O       -60.6620   -2.7452  -55.3426 O.3      1 UNK          0.0000
    7 H       -61.3799   -2.0889  -55.3950 H        1 UNK          0.0000
    8 O       -62.7245   -4.5502  -54.6452 O.3      1 UNK          0.0000
    9 H       -62.5261   -4.9020  -53.7668 H        1 UNK          0.0000
   10 O       -61.2284    2.3828  -57.0701 O.2      1 UNK          0.0000
   11 N       -63.1661    0.1471  -60.0649 N.ar     1 UNK          0.0000
   12 N       -60.6043    4.0465  -58.2537 N.am     1 UNK          0.0000
   13 H       -60.1228    4.4225  -57.4562 H        1 UNK          0.0000
   14 H       -60.6063    4.5442  -59.1234 H        1 UNK          0.0000
   15 C       -63.7396   -3.5716  -59.9111 C.3      1 UNK          0.0000
   16 H       -64.6385   -4.2033  -59.8984 H        1 UNK          0.0000
   17 C       -63.9878   -2.2528  -60.6929 C.3      1 UNK          0.0000
   18 H       -63.2100   -2.1605  -61.4622 H        1 UNK          0.0000
   19 C       -63.5075   -3.0108  -58.4709 C.3      1 UNK          0.0000
   20 H       -64.4664   -2.8775  -57.9548 H        1 UNK          0.0000
   21 C       -63.7809   -1.1319  -59.6356 C.3      1 UNK          0.0000
   22 H       -64.7198   -0.9230  -59.0997 H        1 UNK          0.0000
   23 C       -62.6070   -4.3857  -60.6205 C.3      1 UNK          0.0000
   24 H       -62.4934   -5.3789  -60.1844 H        1 UNK          0.0000
   25 H       -61.6435   -3.8666  -60.5795 H        1 UNK          0.0000
   26 H       -62.8523   -4.5505  -61.6761 H        1 UNK          0.0000
   27 C       -65.3852   -2.1911  -61.3554 C.3      1 UNK          0.0000
   28 H       -65.4881   -2.9846  -62.1077 H        1 UNK          0.0000
   29 H       -66.1772   -2.3290  -60.6072 H        1 UNK          0.0000
   30 H       -65.5517   -1.2278  -61.8520 H        1 UNK          0.0000
   31 C       -62.5418   -3.7586  -57.5809 C.3      1 UNK          0.0000
   32 H       -62.8689   -4.8014  -57.5448 H        1 UNK          0.0000
   33 H       -61.5696   -3.7025  -58.0833 H        1 UNK          0.0000
   34 C       -62.4936    0.9144  -59.0765 C.ar     1 UNK          0.0000
   35 H       -62.4243    0.4895  -58.0847 H        1 UNK          0.0000
   36 C       -63.1828    0.6369  -61.4068 C.ar     1 UNK          0.0000
   37 H       -63.6792    0.0441  -62.1740 H        1 UNK          0.0000
   38 C       -61.8942    2.1662  -59.3516 C.ar     1 UNK          0.0000
   39 C       -62.5536    1.8716  -61.7344 C.ar     1 UNK          0.0000
   40 H       -62.5465    2.2287  -62.7606 H        1 UNK          0.0000
   41 C       -61.9360    2.6374  -60.7122 C.ar     1 UNK          0.0000
   42 H       -61.4861    3.5576  -61.0174 H        1 UNK          0.0000
   43 C       -61.2459    2.8507  -58.1653 C.2      1 UNK          0.0000
@<TRIPOS>BOND
     1     1     3   1 
     2     1     4   1 
     3     1     6   1 
     4     1     8   1 
     5     2    19   1 
     6     2    21   1 
     7     3    31   1 
     8     4     5   1 
     9     6     7   1 
    10     8     9   1 
    11    10    43   2 
    12    11    21   1 
    13    11    34   ar
    14    11    36   ar
    15    12    13   1 
    16    12    14   1 
    17    12    43   am
    18    15    16   1 
    19    15    17   1 
    20    15    19   1 
    21    15    23   1 
    22    17    18   1 
    23    17    21   1 
    24    17    27   1 
    25    19    20   1 
    26    19    31   1 
    27    21    22   1 
    28    23    24   1 
    29    23    25   1 
    30    23    26   1 
    31    27    28   1 
    32    27    29   1 
    33    27    30   1 
    34    31    32   1 
    35    31    33   1 
    36    34    35   1 
    37    34    38   ar
    38    36    37   1 
    39    36    39   ar
    40    38    41   ar
    41    38    43   1 
    42    39    40   1 
    43    39    41   ar
    44    41    42   1 
#MOLECULE END
 
#  inp11.mol2              8    of   10
#                 SCORE =  -221.1954
#              dG-SCORE =    -5.1811
#     LIGAND_EFFICIENCY =    -1.0054
# NUMBER_OF_HEAVY_ATOMS =         22
#                   ASA =  -185.1131
#                   ELE =     0.0000
#                   HYD =   -32.2611
#                   VDW =    -3.8212
#                  RMSD =    55.2418
@<TRIPOS>MOLECULE
inp11.mol2                                                                      
   43   44    0    0    0
SMALL       
GASTEIGER      
 
@<TRIPOS>ATOM
    1 P       -62.4916    2.2648  -61.8192 P.3      1 UNK          0.0000
    2 O       -60.2376   -1.3769  -62.8586 O.3      1 UNK          0.0000
    3 O       -61.9176    0.8905  -62.4302 O.3      1 UNK          0.0000
    4 O       -62.5436    3.6769  -62.5691 O.3      1 UNK          0.0000
    5 H       -62.2402    3.5454  -63.4754 H        1 UNK          0.0000
    6 O       -60.9649    2.6133  -62.1000 O.3      1 UNK          0.0000
    7 H       -60.6988    2.1720  -62.9252 H        1 UNK          0.0000
    8 O       -63.3818    1.9576  -63.1065 O.3      1 UNK          0.0000
    9 H       -63.9866    2.7058  -63.2411 H        1 UNK          0.0000
   10 O       -56.1205    1.2885  -63.1976 O.2      1 UNK          0.0000
   11 N       -58.1248   -2.5240  -62.9705 N.ar     1 UNK          0.0000
   12 N       -54.1468    0.4178  -62.6799 N.am     1 UNK          0.0000
   13 H       -53.6798    1.2957  -62.7858 H        1 UNK          0.0000
   14 H       -53.6265   -0.4022  -62.4274 H        1 UNK          0.0000
   15 C       -61.7869   -2.9984  -62.0810 C.3      1 UNK          0.0000
   16 H       -62.6123   -3.4734  -62.6255 H        1 UNK          0.0000
   17 C       -60.4380   -3.6885  -62.4801 C.3      1 UNK          0.0000
   18 H       -59.9071   -4.0001  -61.5697 H        1 UNK          0.0000
   19 C       -61.6511   -1.5442  -62.6459 C.3      1 UNK          0.0000
   20 H       -62.1307   -1.5243  -63.6329 H        1 UNK          0.0000
   21 C       -59.5919   -2.6057  -63.2671 C.3      1 UNK          0.0000
   22 H       -59.7432   -2.7162  -64.3497 H        1 UNK          0.0000
   23 C       -62.1496   -3.1440  -60.5600 C.3      1 UNK          0.0000
   24 H       -63.1607   -2.7668  -60.3646 H        1 UNK          0.0000
   25 H       -61.4798   -2.5922  -59.8953 H        1 UNK          0.0000
   26 H       -62.1352   -4.1971  -60.2589 H        1 UNK          0.0000
   27 C       -60.5862   -4.9613  -63.3247 C.3      1 UNK          0.0000
   28 H       -61.1493   -5.7292  -62.7766 H        1 UNK          0.0000
   29 H       -61.1050   -4.7436  -64.2659 H        1 UNK          0.0000
   30 H       -59.5999   -5.3738  -63.5675 H        1 UNK          0.0000
   31 C       -62.2465   -0.3694  -61.8040 C.3      1 UNK          0.0000
   32 H       -63.3398   -0.4791  -61.7520 H        1 UNK          0.0000
   33 H       -61.8564   -0.3808  -60.7773 H        1 UNK          0.0000
   34 C       -57.4397   -1.2427  -63.1106 C.ar     1 UNK          0.0000
   35 H       -58.0283   -0.4053  -63.4968 H        1 UNK          0.0000
   36 C       -57.3365   -3.6009  -62.4102 C.ar     1 UNK          0.0000
   37 H       -57.8364   -4.5716  -62.2796 H        1 UNK          0.0000
   38 C       -56.0969   -1.0706  -62.7215 C.ar     1 UNK          0.0000
   39 C       -55.9967   -3.4370  -61.9932 C.ar     1 UNK          0.0000
   40 H       -55.4378   -4.2569  -61.5485 H        1 UNK          0.0000
   41 C       -55.3492   -2.1568  -62.1515 C.ar     1 UNK          0.0000
   42 H       -54.3284   -2.0400  -61.8276 H        1 UNK          0.0000
   43 C       -55.4775    0.3101  -62.8831 C.2      1 UNK          0.0000
@<TRIPOS>BOND
     1     1     3   1 
     2     1     4   1 
     3     1     6   1 
     4     1     8   1 
     5     2    19   1 
     6     2    21   1 
     7     3    31   1 
     8     4     5   1 
     9     6     7   1 
    10     8     9   1 
    11    10    43   2 
    12    11    21   1 
    13    11    34   ar
    14    11    36   ar
    15    12    13   1 
    16    12    14   1 
    17    12    43   am
    18    15    16   1 
    19    15    17   1 
    20    15    19   1 
    21    15    23   1 
    22    17    18   1 
    23    17    21   1 
    24    17    27   1 
    25    19    20   1 
    26    19    31   1 
    27    21    22   1 
    28    23    24   1 
    29    23    25   1 
    30    23    26   1 
    31    27    28   1 
    32    27    29   1 
    33    27    30   1 
    34    31    32   1 
    35    31    33   1 
    36    34    35   1 
    37    34    38   ar
    38    36    37   1 
    39    36    39   ar
    40    38    41   ar
    41    38    43   1 
    42    39    40   1 
    43    39    41   ar
    44    41    42   1 
#MOLECULE END
 
#  inp11.mol2              9    of   10
#                 SCORE =  -217.2715
#              dG-SCORE =    -5.1946
#     LIGAND_EFFICIENCY =    -0.9876
# NUMBER_OF_HEAVY_ATOMS =         22
#                   ASA =  -173.3152
#                   ELE =     0.0000
#                   HYD =   -40.0867
#                   VDW =    -3.8695
#                  RMSD =    51.8545
@<TRIPOS>MOLECULE
inp11.mol2                                                                      
   43   44    0    0    0
SMALL       
GASTEIGER      
 
@<TRIPOS>ATOM
    1 P       -62.1375   -4.3871  -54.8785 P.3      1 UNK          0.0000
    2 O       -63.5226   -1.9434  -58.2829 O.3      1 UNK          0.0000
    3 O       -63.1230   -3.5415  -55.8109 O.3      1 UNK          0.0000
    4 O       -62.0858   -3.9490  -53.3624 O.3      1 UNK          0.0000
    5 H       -62.7221   -3.2172  -53.2505 H        1 UNK          0.0000
    6 O       -61.3937   -2.9825  -55.0382 O.3      1 UNK          0.0000
    7 H       -62.0711   -2.2840  -54.9851 H        1 UNK          0.0000
    8 O       -63.5750   -4.5827  -54.2150 O.3      1 UNK          0.0000
    9 H       -63.4427   -5.0121  -53.3615 H        1 UNK          0.0000
   10 O       -61.0976    2.0908  -56.9571 O.2      1 UNK          0.0000
   11 N       -63.6713    0.0234  -59.6316 N.ar     1 UNK          0.0000
   12 N       -60.8544    3.8347  -58.0912 N.am     1 UNK          0.0000
   13 H       -60.2712    4.1859  -57.3555 H        1 UNK          0.0000
   14 H       -61.0796    4.3903  -58.8891 H        1 UNK          0.0000
   15 C       -64.4309   -3.6889  -59.4565 C.3      1 UNK          0.0000
   16 H       -65.3418   -4.3018  -59.4503 H        1 UNK          0.0000
   17 C       -64.6571   -2.3437  -60.2149 C.3      1 UNK          0.0000
   18 H       -63.8989   -2.2714  -61.0034 H        1 UNK          0.0000
   19 C       -64.1730   -3.1823  -58.0097 C.3      1 UNK          0.0000
   20 H       -65.1237   -3.0243  -57.4821 H        1 UNK          0.0000
   21 C       -64.3831   -1.2369  -59.1684 C.3      1 UNK          0.0000
   22 H       -65.3038   -0.9550  -58.6350 H        1 UNK          0.0000
   23 C       -63.3043   -4.5143  -60.1607 C.3      1 UNK          0.0000
   24 H       -63.2245   -5.5304  -59.7474 H        1 UNK          0.0000
   25 H       -62.3286   -4.0143  -60.0827 H        1 UNK          0.0000
   26 H       -63.5329   -4.6337  -61.2257 H        1 UNK          0.0000
   27 C       -66.0673   -2.2502  -60.8546 C.3      1 UNK          0.0000
   28 H       -66.1935   -3.0362  -61.6100 H        1 UNK          0.0000
   29 H       -66.8521   -2.3799  -60.0976 H        1 UNK          0.0000
   30 H       -66.2234   -1.2812  -61.3438 H        1 UNK          0.0000
   31 C       -63.2204   -4.0048  -57.1437 C.3      1 UNK          0.0000
   32 H       -63.5436   -5.0527  -57.1169 H        1 UNK          0.0000
   33 H       -62.2340   -3.8950  -57.5892 H        1 UNK          0.0000
   34 C       -62.8544    0.7048  -58.7129 C.ar     1 UNK          0.0000
   35 H       -62.7403    0.2999  -57.7173 H        1 UNK          0.0000
   36 C       -63.7683    0.5227  -60.9554 C.ar     1 UNK          0.0000
   37 H       -64.3541   -0.0124  -61.6867 H        1 UNK          0.0000
   38 C       -62.1711    1.9361  -59.0474 C.ar     1 UNK          0.0000
   39 C       -63.0761    1.7468  -61.3256 C.ar     1 UNK          0.0000
   40 H       -63.1364    2.1128  -62.3390 H        1 UNK          0.0000
   41 C       -62.3409    2.4496  -60.3577 C.ar     1 UNK          0.0000
   42 H       -61.8905    3.4041  -60.6369 H        1 UNK          0.0000
   43 C       -61.3553    2.5859  -57.9916 C.2      1 UNK          0.0000
@<TRIPOS>BOND
     1     1     3   1 
     2     1     4   1 
     3     1     6   1 
     4     1     8   1 
     5     2    19   1 
     6     2    21   1 
     7     3    31   1 
     8     4     5   1 
     9     6     7   1 
    10     8     9   1 
    11    10    43   2 
    12    11    21   1 
    13    11    34   ar
    14    11    36   ar
    15    12    13   1 
    16    12    14   1 
    17    12    43   am
    18    15    16   1 
    19    15    17   1 
    20    15    19   1 
    21    15    23   1 
    22    17    18   1 
    23    17    21   1 
    24    17    27   1 
    25    19    20   1 
    26    19    31   1 
    27    21    22   1 
    28    23    24   1 
    29    23    25   1 
    30    23    26   1 
    31    27    28   1 
    32    27    29   1 
    33    27    30   1 
    34    31    32   1 
    35    31    33   1 
    36    34    35   1 
    37    34    38   ar
    38    36    37   1 
    39    36    39   ar
    40    38    41   ar
    41    38    43   1 
    42    39    40   1 
    43    39    41   ar
    44    41    42   1 
#MOLECULE END
 
#  inp11.mol2             10    of   10
#                 SCORE =  -205.3561
#              dG-SCORE =    -4.8993
#     LIGAND_EFFICIENCY =    -0.9334
# NUMBER_OF_HEAVY_ATOMS =         22
#                   ASA =  -160.1118
#                   ELE =     0.0000
#                   HYD =   -41.2528
#                   VDW =    -3.9914
#                  RMSD =    54.1148
@<TRIPOS>MOLECULE
inp11.mol2                                                                      
   43   44    0    0    0
SMALL       
GASTEIGER      
 
@<TRIPOS>ATOM
    1 P       -61.6133    1.6380  -57.7519 P.3      1 UNK          0.0000
    2 O       -60.6249   -0.1722  -61.6058 O.3      1 UNK          0.0000
    3 O       -61.5408    1.0523  -59.2265 O.3      1 UNK          0.0000
    4 O       -61.1388    3.1446  -57.6114 O.3      1 UNK          0.0000
    5 H       -61.4121    3.6355  -58.4006 H        1 UNK          0.0000
    6 O       -60.1280    1.6707  -58.1347 O.3      1 UNK          0.0000
    7 H       -60.1023    2.2111  -58.9437 H        1 UNK          0.0000
    8 O       -62.7087    2.3334  -58.6481 O.3      1 UNK          0.0000
    9 H       -63.1901    2.9429  -58.0671 H        1 UNK          0.0000
   10 O       -56.0763    1.6512  -61.7635 O.2      1 UNK          0.0000
   11 N       -58.9502   -1.0318  -63.2177 N.ar     1 UNK          0.0000
   12 N       -54.3076    0.7601  -62.7893 N.am     1 UNK          0.0000
   13 H       -53.6942    1.4439  -62.3957 H        1 UNK          0.0000
   14 H       -53.9287    0.0416  -63.3832 H        1 UNK          0.0000
   15 C       -62.1820   -2.0038  -61.3935 C.3      1 UNK          0.0000
   16 H       -63.2203   -2.0573  -61.7402 H        1 UNK          0.0000
   17 C       -61.1933   -2.2422  -62.5787 C.3      1 UNK          0.0000
   18 H       -60.4846   -3.0261  -62.2679 H        1 UNK          0.0000
   19 C       -61.8974   -0.5297  -60.9899 C.3      1 UNK          0.0000
   20 H       -62.6675    0.1036  -61.4470 H        1 UNK          0.0000
   21 C       -60.4280   -0.8901  -62.8541 C.3      1 UNK          0.0000
   22 H       -60.9249   -0.3232  -63.6508 H        1 UNK          0.0000
   23 C       -62.0351   -3.0612  -60.2432 C.3      1 UNK          0.0000
   24 H       -62.7970   -2.9094  -59.4671 H        1 UNK          0.0000
   25 H       -61.0711   -2.9660  -59.7472 H        1 UNK          0.0000
   26 H       -62.1331   -4.0895  -60.6102 H        1 UNK          0.0000
   27 C       -61.8676   -2.7633  -63.8568 C.3      1 UNK          0.0000
   28 H       -62.3938   -3.7047  -63.6536 H        1 UNK          0.0000
   29 H       -62.5879   -2.0293  -64.2363 H        1 UNK          0.0000
   30 H       -61.1200   -2.9496  -64.6368 H        1 UNK          0.0000
   31 C       -61.9252   -0.2869  -59.4551 C.3      1 UNK          0.0000
   32 H       -62.9429   -0.4395  -59.0749 H        1 UNK          0.0000
   33 H       -61.2486   -0.9523  -58.9117 H        1 UNK          0.0000
   34 C       -58.0293    0.0319  -62.9418 C.ar     1 UNK          0.0000
   35 H       -58.4221    0.9743  -62.5478 H        1 UNK          0.0000
   36 C       -58.3805   -2.2691  -63.7192 C.ar     1 UNK          0.0000
   37 H       -59.0388   -3.1125  -63.9117 H        1 UNK          0.0000
   38 C       -56.6073   -0.1652  -63.0716 C.ar     1 UNK          0.0000
   39 C       -56.9694   -2.4272  -63.9200 C.ar     1 UNK          0.0000
   40 H       -56.5643   -3.3665  -64.2865 H        1 UNK          0.0000
   41 C       -56.0848   -1.3708  -63.6076 C.ar     1 UNK          0.0000
   42 H       -55.0085   -1.4977  -63.7228 H        1 UNK          0.0000
   43 C       -55.6591    0.8242  -62.5188 C.2      1 UNK          0.0000
@<TRIPOS>BOND
     1     1     3   1 
     2     1     4   1 
     3     1     6   1 
     4     1     8   1 
     5     2    19   1 
     6     2    21   1 
     7     3    31   1 
     8     4     5   1 
     9     6     7   1 
    10     8     9   1 
    11    10    43   2 
    12    11    21   1 
    13    11    34   ar
    14    11    36   ar
    15    12    13   1 
    16    12    14   1 
    17    12    43   am
    18    15    16   1 
    19    15    17   1 
    20    15    19   1 
    21    15    23   1 
    22    17    18   1 
    23    17    21   1 
    24    17    27   1 
    25    19    20   1 
    26    19    31   1 
    27    21    22   1 
    28    23    24   1 
    29    23    25   1 
    30    23    26   1 
    31    27    28   1 
    32    27    29   1 
    33    27    30   1 
    34    31    32   1 
    35    31    33   1 
    36    34    35   1 
    37    34    38   ar
    38    36    37   1 
    39    36    39   ar
    40    38    41   ar
    41    38    43   1 
    42    39    40   1 
    43    39    41   ar
    44    41    42   1 
#MOLECULE END
 
