inp11.mol2
     Hgene          

 22 23  0  0  0  0               V2000
  -62.6063   -4.4306  -61.4058 P   0  0  2  0  0
  -60.7315   -0.5414  -62.3525 O   0  0  0  0  0
  -62.1088   -2.9079  -61.1542 O   0  0  0  0  0
  -62.0243   -5.6903  -60.6070 O   0  0  0  0  0
  -61.0554   -4.5114  -61.8002 O   0  0  0  0  0
  -63.1033   -4.1629  -59.9013 O   0  0  0  0  0
  -56.0215   -2.6813  -62.0936 O   0  0  0  0  0
  -58.7178    0.6481  -62.7416 N   0  0  0  0  0
  -54.4147   -1.9263  -63.4170 N   0  0  0  0  0
  -62.5206    0.8230  -62.3349 C   0  0  0  0  0
  -61.2270    1.6340  -62.6183 C   0  0  0  0  0
  -61.9856   -0.4802  -61.6687 C   0  0  0  0  0
  -60.0849    0.7018  -62.0963 C   0  0  0  0  0
  -63.2441    0.6463  -63.6946 C   0  0  0  0  0
  -61.3850    3.0604  -62.0392 C   0  0  0  0  0
  -62.7350   -1.8274  -61.8906 C   0  0  0  0  0
  -57.8890   -0.5258  -62.6524 C   0  0  0  0  0
  -58.1730    1.7477  -63.4589 C   0  0  0  0  0
  -56.5448   -0.5913  -63.1531 C   0  0  0  0  0
  -56.8979    1.6397  -64.1044 C   0  0  0  0  0
  -56.0799    0.5105  -63.9296 C   0  0  0  0  0
  -55.6701   -1.7839  -62.8504 C   0  0  0  0  0
  1  3  1  0
  1  4  1  0
  1  5  1  0
  1  6  1  0
  2 12  1  0
  2 13  1  0
  3 16  1  0
  7 22  2  0
  8 13  1  0
  8 17  4  0
  8 18  4  0
  9 22  1  0
 10 11  1  0
 10 12  1  0
 10 14  1  0
 11 13  1  0
 11 15  1  0
 12 16  1  0
 17 19  4  0
 18 20  4  0
 19 21  4  0
 19 22  1  0
 20 21  4  0
M  END
$$$$
