@<TRIPOS>COMMENT
   inp11.mol2              2    of   10
                  SCORE =  -233.5605
               dG-SCORE =    -5.6716
      LIGAND_EFFICIENCY =    -1.0616
  NUMBER_OF_HEAVY_ATOMS =         22
                    ASA =  -187.2097
                    ELE =     0.0000
                    HYD =   -42.9270
                    VDW =    -3.4237
                   RMSD =    53.6043
 MOLECULAR_WEIGHT = 332.29
@<TRIPOS>MOLECULE
inp11.mol2                                                                      
   43   44    0    0    0
SMALL       
GASTEIGER      
 
@<TRIPOS>ATOM
    1 P       -56.8309    1.1903  -62.8088 P.3      1 UNK          0.0000
    2 O       -61.0508    0.6889  -61.1937 O.3      1 UNK          0.0000
    3 O       -58.3733    0.6951  -62.7811 O.3      1 UNK          0.0000
    4 O       -55.6251    0.1873  -62.4615 O.3      1 UNK          0.0000
    5 H       -55.9747   -0.7143  -62.3520 H        1 UNK          0.0000
    6 O       -57.0788    0.6975  -61.3249 O.3      1 UNK          0.0000
    7 H       -57.4356   -0.2106  -61.3888 H        1 UNK          0.0000
    8 O       -56.8325    0.1939  -64.0556 O.3      1 UNK          0.0000
    9 H       -55.9122    0.0751  -64.3447 H        1 UNK          0.0000
   10 O       -60.4307   -2.2075  -56.7589 O.2      1 UNK          0.0000
   11 N       -62.8883   -0.3206  -59.8340 N.ar     1 UNK          0.0000
   12 N       -61.9661   -2.8049  -55.4439 N.am     1 UNK          0.0000
   13 H       -61.2147   -3.1316  -54.8585 H        1 UNK          0.0000
   14 H       -62.9152   -2.8270  -55.1151 H        1 UNK          0.0000
   15 C       -62.0847    1.8393  -62.9073 C.3      1 UNK          0.0000
   16 H       -62.3127    1.7717  -63.9809 H        1 UNK          0.0000
   17 C       -63.1495    1.1101  -62.0386 C.3      1 UNK          0.0000
   18 H       -63.5734    1.8489  -61.3503 H        1 UNK          0.0000
   19 C       -60.8247    0.9887  -62.5906 C.3      1 UNK          0.0000
   20 H       -60.8797    0.0604  -63.1756 H        1 UNK          0.0000
   21 C       -62.3494    0.0884  -61.2005 C.3      1 UNK          0.0000
   22 H       -62.2860   -0.8455  -61.7748 H        1 UNK          0.0000
   23 C       -62.0018    3.3354  -62.4981 C.3      1 UNK          0.0000
   24 H       -61.0956    3.7870  -62.8967 H        1 UNK          0.0000
   25 H       -61.9622    3.4357  -61.4138 H        1 UNK          0.0000
   26 H       -62.8582    3.9150  -62.8686 H        1 UNK          0.0000
   27 C       -64.2417    0.3805  -62.8781 C.3      1 UNK          0.0000
   28 H       -64.7621    1.0707  -63.5485 H        1 UNK          0.0000
   29 H       -63.8045   -0.3969  -63.5100 H        1 UNK          0.0000
   30 H       -64.9877   -0.1111  -62.2357 H        1 UNK          0.0000
   31 C       -59.4452    1.6502  -62.8375 C.3      1 UNK          0.0000
   32 H       -59.4287    2.1302  -63.8023 H        1 UNK          0.0000
   33 H       -59.2890    2.4232  -62.0970 H        1 UNK          0.0000
   34 C       -62.0585   -1.0446  -58.9355 C.ar     1 UNK          0.0000
   35 H       -61.0119   -1.1205  -59.1629 H        1 UNK          0.0000
   36 C       -64.2503   -0.0692  -59.4768 C.ar     1 UNK          0.0000
   37 H       -64.8820    0.5484  -60.0950 H        1 UNK          0.0000
   38 C       -62.5695   -1.6647  -57.7123 C.ar     1 UNK          0.0000
   39 C       -64.8032   -0.6685  -58.2922 C.ar     1 UNK          0.0000
   40 H       -65.8317   -0.4447  -58.0181 H        1 UNK          0.0000
   41 C       -63.9927   -1.4991  -57.4772 C.ar     1 UNK          0.0000
   42 H       -64.4556   -1.9395  -56.5778 H        1 UNK          0.0000
   43 C       -61.6218   -2.2582  -56.6794 C.2      1 UNK          0.0000
@<TRIPOS>BOND
     1     1     3   1 
     2     1     4   1 
     3     1     6   1 
     4     1     8   1 
     5     2    19   1 
     6     2    21   1 
     7     3    31   1 
     8     4     5   1 
     9     6     7   1 
    10     8     9   1 
    11    10    43   2 
    12    11    21   1 
    13    11    34   ar
    14    11    36   ar
    15    12    13   1 
    16    12    14   1 
    17    12    43   am
    18    15    16   1 
    19    15    17   1 
    20    15    19   1 
    21    15    23   1 
    22    17    18   1 
    23    17    21   1 
    24    17    27   1 
    25    19    20   1 
    26    19    31   1 
    27    21    22   1 
    28    23    24   1 
    29    23    25   1 
    30    23    26   1 
    31    27    28   1 
    32    27    29   1 
    33    27    30   1 
    34    31    32   1 
    35    31    33   1 
    36    34    35   1 
    37    34    38   ar
    38    36    37   1 
    39    36    39   ar
    40    38    41   ar
    41    38    43   1 
    42    39    40   1 
    43    39    41   ar
    44    41    42   1 
 
