inp11.mol2
     Hgene          

 22 23  0  0  0  0               V2000
  -56.8309    1.1903  -62.8088 P   0  0  2  0  0
  -61.0508    0.6889  -61.1937 O   0  0  0  0  0
  -58.3733    0.6951  -62.7811 O   0  0  0  0  0
  -55.6251    0.1873  -62.4615 O   0  0  0  0  0
  -57.0788    0.6975  -61.3249 O   0  0  0  0  0
  -56.8325    0.1939  -64.0556 O   0  0  0  0  0
  -60.4307   -2.2075  -56.7589 O   0  0  0  0  0
  -62.8883   -0.3206  -59.8340 N   0  0  0  0  0
  -61.9661   -2.8049  -55.4439 N   0  0  0  0  0
  -62.0847    1.8393  -62.9073 C   0  0  0  0  0
  -63.1495    1.1101  -62.0386 C   0  0  0  0  0
  -60.8247    0.9887  -62.5906 C   0  0  0  0  0
  -62.3494    0.0884  -61.2005 C   0  0  0  0  0
  -62.0018    3.3354  -62.4981 C   0  0  0  0  0
  -64.2417    0.3805  -62.8781 C   0  0  0  0  0
  -59.4452    1.6502  -62.8375 C   0  0  0  0  0
  -62.0585   -1.0446  -58.9355 C   0  0  0  0  0
  -64.2503   -0.0692  -59.4768 C   0  0  0  0  0
  -62.5695   -1.6647  -57.7123 C   0  0  0  0  0
  -64.8032   -0.6685  -58.2922 C   0  0  0  0  0
  -63.9927   -1.4991  -57.4772 C   0  0  0  0  0
  -61.6218   -2.2582  -56.6794 C   0  0  0  0  0
  1  3  1  0
  1  4  1  0
  1  5  1  0
  1  6  1  0
  2 12  1  0
  2 13  1  0
  3 16  1  0
  7 22  2  0
  8 13  1  0
  8 17  4  0
  8 18  4  0
  9 22  1  0
 10 11  1  0
 10 12  1  0
 10 14  1  0
 11 13  1  0
 11 15  1  0
 12 16  1  0
 17 19  4  0
 18 20  4  0
 19 21  4  0
 19 22  1  0
 20 21  4  0
M  END
$$$$
