inp11.mol2
     Hgene          

 22 23  0  0  0  0               V2000
  -65.9881    6.0985  -60.7527 P   0  0  2  0  0
  -63.3155    2.5919  -60.7576 O   0  0  0  0  0
  -64.5819    5.3220  -60.5096 O   0  0  0  0  0
  -66.8941    6.6401  -59.5614 O   0  0  0  0  0
  -66.5251    4.7379  -60.0774 O   0  0  0  0  0
  -65.1460    7.2643  -60.0943 O   0  0  0  0  0
  -66.2166    0.1111  -57.7738 O   0  0  0  0  0
  -62.6448    0.4546  -60.1204 N   0  0  0  0  0
  -66.1693   -2.0842  -57.6198 N   0  0  0  0  0
  -61.8794    3.2403  -62.4167 C   0  0  0  0  0
  -61.4665    1.8568  -61.9188 C   0  0  0  0  0
  -62.7833    3.7750  -61.2860 C   0  0  0  0  0
  -62.1692    1.7737  -60.5181 C   0  0  0  0  0
  -62.5447    2.9664  -63.7745 C   0  0  0  0  0
  -59.9457    1.6224  -61.9969 C   0  0  0  0  0
  -63.8763    4.7799  -61.6570 C   0  0  0  0  0
  -63.8367    0.3457  -59.3133 C   0  0  0  0  0
  -62.0513   -0.7612  -60.5636 C   0  0  0  0  0
  -64.3601   -0.9018  -58.9260 C   0  0  0  0  0
  -62.5343   -2.0249  -60.1748 C   0  0  0  0  0
  -63.7036   -2.1132  -59.3312 C   0  0  0  0  0
  -65.6360   -0.9143  -58.0773 C   0  0  0  0  0
  1  3  1  0
  1  4  1  0
  1  5  1  0
  1  6  1  0
  2 12  1  0
  2 13  1  0
  3 16  1  0
  7 22  2  0
  8 13  1  0
  8 17  4  0
  8 18  4  0
  9 22  1  0
 10 11  1  0
 10 12  1  0
 10 14  1  0
 11 13  1  0
 11 15  1  0
 12 16  1  0
 17 19  4  0
 18 20  4  0
 19 21  4  0
 19 22  1  0
 20 21  4  0
M  END
$$$$
