@<TRIPOS>COMMENT
   inp11.mol2              5    of   10
                  SCORE =  -226.5912
               dG-SCORE =    -5.3476
      LIGAND_EFFICIENCY =    -1.0300
  NUMBER_OF_HEAVY_ATOMS =         22
                    ASA =  -188.8432
                    ELE =     0.0000
                    HYD =   -33.9642
                    VDW =    -3.7838
                   RMSD =    54.9912
 MOLECULAR_WEIGHT = 332.29
@<TRIPOS>MOLECULE
inp11.mol2                                                                      
   43   44    0    0    0
SMALL       
GASTEIGER      
 
@<TRIPOS>ATOM
    1 P       -62.2909    3.3807  -61.1011 P.3      1 UNK          0.0000
    2 O       -61.4231   -0.7333  -61.8259 O.3      1 UNK          0.0000
    3 O       -62.5651    1.8337  -61.4408 O.3      1 UNK          0.0000
    4 O       -62.7087    4.3515  -62.3008 O.3      1 UNK          0.0000
    5 H       -62.6624    3.8755  -63.1413 H        1 UNK          0.0000
    6 O       -61.2209    3.1139  -62.2475 O.3      1 UNK          0.0000
    7 H       -61.5773    2.4684  -62.8680 H        1 UNK          0.0000
    8 O       -63.8555    3.4190  -61.2436 O.3      1 UNK          0.0000
    9 H       -64.1700    4.3393  -61.2494 H        1 UNK          0.0000
   10 O       -57.3449    0.7504  -64.4469 O.2      1 UNK          0.0000
   11 N       -59.8621   -2.3945  -62.7202 N.ar     1 UNK          0.0000
   12 N       -55.4394   -0.3467  -64.2315 N.am     1 UNK          0.0000
   13 H       -54.9509    0.3982  -64.7260 H        1 UNK          0.0000
   14 H       -54.9077   -1.1337  -63.8898 H        1 UNK          0.0000
   15 C       -62.8596   -1.8454  -60.3486 C.3      1 UNK          0.0000
   16 H       -63.9039   -2.1813  -60.4249 H        1 UNK          0.0000
   17 C       -61.9044   -2.8606  -61.0365 C.3      1 UNK          0.0000
   18 H       -61.1288   -3.0881  -60.2970 H        1 UNK          0.0000
   19 C       -62.7075   -0.5511  -61.1968 C.3      1 UNK          0.0000
   20 H       -63.4775   -0.5678  -61.9818 H        1 UNK          0.0000
   21 C       -61.2866   -2.1021  -62.2956 C.3      1 UNK          0.0000
   22 H       -61.9518   -2.2395  -63.1596 H        1 UNK          0.0000
   23 C       -62.5446   -1.6747  -58.8326 C.3      1 UNK          0.0000
   24 H       -63.2827   -0.9909  -58.4044 H        1 UNK          0.0000
   25 H       -61.5491   -1.2520  -58.6596 H        1 UNK          0.0000
   26 H       -62.6184   -2.6282  -58.2951 H        1 UNK          0.0000
   27 C       -62.5616   -4.2027  -61.4077 C.3      1 UNK          0.0000
   28 H       -62.9976   -4.6798  -60.5176 H        1 UNK          0.0000
   29 H       -63.3648   -4.0498  -62.1411 H        1 UNK          0.0000
   30 H       -61.8334   -4.9004  -61.8363 H        1 UNK          0.0000
   31 C       -62.7911    0.8190  -60.4548 C.3      1 UNK          0.0000
   32 H       -63.7850    0.9485  -60.0021 H        1 UNK          0.0000
   33 H       -62.0301    0.8867  -59.6669 H        1 UNK          0.0000
   34 C       -59.0443   -1.3340  -63.3523 C.ar     1 UNK          0.0000
   35 H       -59.5700   -0.4253  -63.6492 H        1 UNK          0.0000
   36 C       -59.1429   -3.6220  -62.3871 C.ar     1 UNK          0.0000
   37 H       -59.7188   -4.4608  -61.9537 H        1 UNK          0.0000
   38 C       -57.6230   -1.4379  -63.4607 C.ar     1 UNK          0.0000
   39 C       -57.7292   -3.7136  -62.4586 C.ar     1 UNK          0.0000
   40 H       -57.2022   -4.5822  -62.0890 H        1 UNK          0.0000
   41 C       -56.9565   -2.6186  -62.9912 C.ar     1 UNK          0.0000
   42 H       -55.8838   -2.7179  -63.0184 H        1 UNK          0.0000
   43 C       -56.8071   -0.2720  -64.0680 C.2      1 UNK          0.0000
@<TRIPOS>BOND
     1     1     3   1 
     2     1     4   1 
     3     1     6   1 
     4     1     8   1 
     5     2    19   1 
     6     2    21   1 
     7     3    31   1 
     8     4     5   1 
     9     6     7   1 
    10     8     9   1 
    11    10    43   2 
    12    11    21   1 
    13    11    34   ar
    14    11    36   ar
    15    12    13   1 
    16    12    14   1 
    17    12    43   am
    18    15    16   1 
    19    15    17   1 
    20    15    19   1 
    21    15    23   1 
    22    17    18   1 
    23    17    21   1 
    24    17    27   1 
    25    19    20   1 
    26    19    31   1 
    27    21    22   1 
    28    23    24   1 
    29    23    25   1 
    30    23    26   1 
    31    27    28   1 
    32    27    29   1 
    33    27    30   1 
    34    31    32   1 
    35    31    33   1 
    36    34    35   1 
    37    34    38   ar
    38    36    37   1 
    39    36    39   ar
    40    38    41   ar
    41    38    43   1 
    42    39    40   1 
    43    39    41   ar
    44    41    42   1 
 
