inp11.mol2
     Hgene          

 22 23  0  0  0  0               V2000
  -62.4916    2.2648  -61.8192 P   0  0  2  0  0
  -60.2376   -1.3769  -62.8586 O   0  0  0  0  0
  -61.9176    0.8905  -62.4302 O   0  0  0  0  0
  -62.5436    3.6769  -62.5691 O   0  0  0  0  0
  -60.9649    2.6133  -62.1000 O   0  0  0  0  0
  -63.3818    1.9576  -63.1065 O   0  0  0  0  0
  -56.1205    1.2885  -63.1976 O   0  0  0  0  0
  -58.1248   -2.5240  -62.9705 N   0  0  0  0  0
  -54.1468    0.4178  -62.6799 N   0  0  0  0  0
  -61.7869   -2.9984  -62.0810 C   0  0  0  0  0
  -60.4380   -3.6885  -62.4801 C   0  0  0  0  0
  -61.6511   -1.5442  -62.6459 C   0  0  0  0  0
  -59.5919   -2.6057  -63.2671 C   0  0  0  0  0
  -62.1496   -3.1440  -60.5600 C   0  0  0  0  0
  -60.5862   -4.9613  -63.3247 C   0  0  0  0  0
  -62.2465   -0.3694  -61.8040 C   0  0  0  0  0
  -57.4397   -1.2427  -63.1106 C   0  0  0  0  0
  -57.3365   -3.6009  -62.4102 C   0  0  0  0  0
  -56.0969   -1.0706  -62.7215 C   0  0  0  0  0
  -55.9967   -3.4370  -61.9932 C   0  0  0  0  0
  -55.3492   -2.1568  -62.1515 C   0  0  0  0  0
  -55.4775    0.3101  -62.8831 C   0  0  0  0  0
  1  3  1  0
  1  4  1  0
  1  5  1  0
  1  6  1  0
  2 12  1  0
  2 13  1  0
  3 16  1  0
  7 22  2  0
  8 13  1  0
  8 17  4  0
  8 18  4  0
  9 22  1  0
 10 11  1  0
 10 12  1  0
 10 14  1  0
 11 13  1  0
 11 15  1  0
 12 16  1  0
 17 19  4  0
 18 20  4  0
 19 21  4  0
 19 22  1  0
 20 21  4  0
M  END
$$$$
