@<TRIPOS>COMMENT
   inp11.mol2              8    of   10
                  SCORE =  -221.1954
               dG-SCORE =    -5.1811
      LIGAND_EFFICIENCY =    -1.0054
  NUMBER_OF_HEAVY_ATOMS =         22
                    ASA =  -185.1131
                    ELE =     0.0000
                    HYD =   -32.2611
                    VDW =    -3.8212
                   RMSD =    55.2418
 MOLECULAR_WEIGHT = 332.29
@<TRIPOS>MOLECULE
inp11.mol2                                                                      
   43   44    0    0    0
SMALL       
GASTEIGER      
 
@<TRIPOS>ATOM
    1 P       -62.4916    2.2648  -61.8192 P.3      1 UNK          0.0000
    2 O       -60.2376   -1.3769  -62.8586 O.3      1 UNK          0.0000
    3 O       -61.9176    0.8905  -62.4302 O.3      1 UNK          0.0000
    4 O       -62.5436    3.6769  -62.5691 O.3      1 UNK          0.0000
    5 H       -62.2402    3.5454  -63.4754 H        1 UNK          0.0000
    6 O       -60.9649    2.6133  -62.1000 O.3      1 UNK          0.0000
    7 H       -60.6988    2.1720  -62.9252 H        1 UNK          0.0000
    8 O       -63.3818    1.9576  -63.1065 O.3      1 UNK          0.0000
    9 H       -63.9866    2.7058  -63.2411 H        1 UNK          0.0000
   10 O       -56.1205    1.2885  -63.1976 O.2      1 UNK          0.0000
   11 N       -58.1248   -2.5240  -62.9705 N.ar     1 UNK          0.0000
   12 N       -54.1468    0.4178  -62.6799 N.am     1 UNK          0.0000
   13 H       -53.6798    1.2957  -62.7858 H        1 UNK          0.0000
   14 H       -53.6265   -0.4022  -62.4274 H        1 UNK          0.0000
   15 C       -61.7869   -2.9984  -62.0810 C.3      1 UNK          0.0000
   16 H       -62.6123   -3.4734  -62.6255 H        1 UNK          0.0000
   17 C       -60.4380   -3.6885  -62.4801 C.3      1 UNK          0.0000
   18 H       -59.9071   -4.0001  -61.5697 H        1 UNK          0.0000
   19 C       -61.6511   -1.5442  -62.6459 C.3      1 UNK          0.0000
   20 H       -62.1307   -1.5243  -63.6329 H        1 UNK          0.0000
   21 C       -59.5919   -2.6057  -63.2671 C.3      1 UNK          0.0000
   22 H       -59.7432   -2.7162  -64.3497 H        1 UNK          0.0000
   23 C       -62.1496   -3.1440  -60.5600 C.3      1 UNK          0.0000
   24 H       -63.1607   -2.7668  -60.3646 H        1 UNK          0.0000
   25 H       -61.4798   -2.5922  -59.8953 H        1 UNK          0.0000
   26 H       -62.1352   -4.1971  -60.2589 H        1 UNK          0.0000
   27 C       -60.5862   -4.9613  -63.3247 C.3      1 UNK          0.0000
   28 H       -61.1493   -5.7292  -62.7766 H        1 UNK          0.0000
   29 H       -61.1050   -4.7436  -64.2659 H        1 UNK          0.0000
   30 H       -59.5999   -5.3738  -63.5675 H        1 UNK          0.0000
   31 C       -62.2465   -0.3694  -61.8040 C.3      1 UNK          0.0000
   32 H       -63.3398   -0.4791  -61.7520 H        1 UNK          0.0000
   33 H       -61.8564   -0.3808  -60.7773 H        1 UNK          0.0000
   34 C       -57.4397   -1.2427  -63.1106 C.ar     1 UNK          0.0000
   35 H       -58.0283   -0.4053  -63.4968 H        1 UNK          0.0000
   36 C       -57.3365   -3.6009  -62.4102 C.ar     1 UNK          0.0000
   37 H       -57.8364   -4.5716  -62.2796 H        1 UNK          0.0000
   38 C       -56.0969   -1.0706  -62.7215 C.ar     1 UNK          0.0000
   39 C       -55.9967   -3.4370  -61.9932 C.ar     1 UNK          0.0000
   40 H       -55.4378   -4.2569  -61.5485 H        1 UNK          0.0000
   41 C       -55.3492   -2.1568  -62.1515 C.ar     1 UNK          0.0000
   42 H       -54.3284   -2.0400  -61.8276 H        1 UNK          0.0000
   43 C       -55.4775    0.3101  -62.8831 C.2      1 UNK          0.0000
@<TRIPOS>BOND
     1     1     3   1 
     2     1     4   1 
     3     1     6   1 
     4     1     8   1 
     5     2    19   1 
     6     2    21   1 
     7     3    31   1 
     8     4     5   1 
     9     6     7   1 
    10     8     9   1 
    11    10    43   2 
    12    11    21   1 
    13    11    34   ar
    14    11    36   ar
    15    12    13   1 
    16    12    14   1 
    17    12    43   am
    18    15    16   1 
    19    15    17   1 
    20    15    19   1 
    21    15    23   1 
    22    17    18   1 
    23    17    21   1 
    24    17    27   1 
    25    19    20   1 
    26    19    31   1 
    27    21    22   1 
    28    23    24   1 
    29    23    25   1 
    30    23    26   1 
    31    27    28   1 
    32    27    29   1 
    33    27    30   1 
    34    31    32   1 
    35    31    33   1 
    36    34    35   1 
    37    34    38   ar
    38    36    37   1 
    39    36    39   ar
    40    38    41   ar
    41    38    43   1 
    42    39    40   1 
    43    39    41   ar
    44    41    42   1 
 
