inp11.mol2
     Hgene          

 22 23  0  0  0  0               V2000
  -61.6133    1.6380  -57.7519 P   0  0  2  0  0
  -60.6249   -0.1722  -61.6058 O   0  0  0  0  0
  -61.5408    1.0523  -59.2265 O   0  0  0  0  0
  -61.1388    3.1446  -57.6114 O   0  0  0  0  0
  -60.1280    1.6707  -58.1347 O   0  0  0  0  0
  -62.7087    2.3334  -58.6481 O   0  0  0  0  0
  -56.0763    1.6512  -61.7635 O   0  0  0  0  0
  -58.9502   -1.0318  -63.2177 N   0  0  0  0  0
  -54.3076    0.7601  -62.7893 N   0  0  0  0  0
  -62.1820   -2.0038  -61.3935 C   0  0  0  0  0
  -61.1933   -2.2422  -62.5787 C   0  0  0  0  0
  -61.8974   -0.5297  -60.9899 C   0  0  0  0  0
  -60.4280   -0.8901  -62.8541 C   0  0  0  0  0
  -62.0351   -3.0612  -60.2432 C   0  0  0  0  0
  -61.8676   -2.7633  -63.8568 C   0  0  0  0  0
  -61.9252   -0.2869  -59.4551 C   0  0  0  0  0
  -58.0293    0.0319  -62.9418 C   0  0  0  0  0
  -58.3805   -2.2691  -63.7192 C   0  0  0  0  0
  -56.6073   -0.1652  -63.0716 C   0  0  0  0  0
  -56.9694   -2.4272  -63.9200 C   0  0  0  0  0
  -56.0848   -1.3708  -63.6076 C   0  0  0  0  0
  -55.6591    0.8242  -62.5188 C   0  0  0  0  0
  1  3  1  0
  1  4  1  0
  1  5  1  0
  1  6  1  0
  2 12  1  0
  2 13  1  0
  3 16  1  0
  7 22  2  0
  8 13  1  0
  8 17  4  0
  8 18  4  0
  9 22  1  0
 10 11  1  0
 10 12  1  0
 10 14  1  0
 11 13  1  0
 11 15  1  0
 12 16  1  0
 17 19  4  0
 18 20  4  0
 19 21  4  0
 19 22  1  0
 20 21  4  0
M  END
$$$$
