@<TRIPOS>MOLECULE
inp8.mol2
 90 95 0 0 0
SMALL
GASTEIGER

@<TRIPOS>ATOM
     1 P1          92.4920   116.0520   166.4650 P.3       1  UNK         0.0000
     2 P2          91.1940   118.6140   166.9220 P.3       1  UNK         0.0000
     3 O1          93.8310   118.3750   168.9860 O.3       1  UNK         0.0000
     4 O2          96.3960   118.7230   171.0900 O.3       1  UNK         0.0000
     5 H7          96.6820   119.3210   171.8040 H         1  UNK         0.0000
     6 O3          95.2050   116.3020   171.5890 O.3       1  UNK         0.0000
     7 H8          96.1070   116.6680   171.6540 H         1  UNK         0.0000
     8 O4          93.6060   115.6800   167.5720 O.3       1  UNK         0.0000
     9 O5          90.7140   115.5140   161.7640 O.3       1  UNK         0.0000
    10 H22         91.2390   116.0320   162.4120 H         1  UNK         0.0000
    11 O6          92.3270   117.6500   166.2920 O.3       1  UNK         0.0000
    12 O7          87.4940   116.6020   163.1680 O.3       1  UNK         0.0000
    13 H23         87.1990   116.8310   164.0710 H         1  UNK         0.0000
    14 O8          90.0430   118.9410   165.8330 O.3       1  UNK         0.0000
    15 O9          91.0220   117.5620   163.6550 O.3       1  UNK         0.0000
    16 H24         91.4190   118.0770   164.3860 H         1  UNK         0.0000
    17 O10         93.0080   115.4600   165.0620 O.3       1  UNK         0.0000
    18 H29         93.8820   115.8450   164.8750 H         1  UNK         0.0000
    19 O11         91.1010   115.3220   166.8130 O.3       1  UNK         0.0000
    20 H36         91.2760   114.3770   166.9600 H         1  UNK         0.0000
    21 O12         90.5240   117.9820   168.2410 O.3       1  UNK         0.0000
    22 H35         89.9230   118.6380   168.6330 H         1  UNK         0.0000
    23 O13         90.0180   115.1640   155.0630 O.2       1  UNK         0.0000
    24 O14         91.8940   119.9980   167.3260 O.3       1  UNK         0.0000
    25 H37         92.5860   119.8150   167.9880 H         1  UNK         0.0000
    26 O15         87.8270   118.3540   157.3340 O.2       1  UNK         0.0000
    27 N1          93.5140   120.5020   169.9840 N.ar      1  UNK         0.0000
    28 N2          89.0510   114.5290   159.7390 N.ar      1  UNK         0.0000
    29 N3          92.5460   122.5750   169.9010 N.ar      1  UNK         0.0000
    30 N4          91.6250   119.3740   171.1160 N.ar      1  UNK         0.0000
    31 N5          90.2140   113.5100   157.3330 N.ar      1  UNK         0.0000
    32 H17         90.5910   113.1500   156.4580 H         1  UNK         0.0000
    33 N6          88.4050   116.5260   158.4840 N.am      1  UNK         0.0000
    34 H20         87.9810   116.9320   159.3070 H         1  UNK         0.0000
    35 N7          89.7580   120.8570   171.5550 N.ar      1  UNK         0.0000
    36 N8          88.9180   116.8010   156.1390 N.am      1  UNK         0.0000
    37 H25         88.8710   117.3710   155.3040 H         1  UNK         0.0000
    38 N9          89.8410   123.1220   170.9400 N.pl3     1  UNK         0.0000
    39 H30         89.0250   123.2750   171.5140 H         1  UNK         0.0000
    40 H31         90.4300   123.9140   170.7240 H         1  UNK         0.0000
    41 C1          94.9620   118.7220   171.0710 C.3       1  UNK         0.0000
    42 H1          94.5530   119.2100   171.9650 H         1  UNK         0.0000
    43 C2          94.4110   117.2910   170.9290 C.3       1  UNK         0.0000
    44 H2          93.3870   117.2680   171.3240 H         1  UNK         0.0000
    45 C3          94.4730   119.4130   169.7650 C.3       1  UNK         0.0000
    46 H3          95.3270   119.8210   169.2090 H         1  UNK         0.0000
    47 C4          94.3530   117.1050   169.4100 C.3       1  UNK         0.0000
    48 H4          95.3650   116.9500   169.0130 H         1  UNK         0.0000
    49 C5          93.4180   115.9490   168.9760 C.3       1  UNK         0.0000
    50 H5          93.6750   115.0510   169.5520 H         1  UNK         0.0000
    51 H6          92.3750   116.2080   169.1970 H         1  UNK         0.0000
    52 C6          92.2770   120.4160   170.5610 C.ar      1  UNK         0.0000
    53 C7          93.6340   121.8480   169.6040 C.ar      1  UNK         0.0000
    54 H9          94.5230   122.2240   169.1120 H         1  UNK         0.0000
    55 C8          91.7290   121.6680   170.4860 C.ar      1  UNK         0.0000
    56 C9          89.4020   116.0830   161.7450 C.3       1  UNK         0.0000
    57 H10         89.4360   117.0290   161.1870 H         1  UNK         0.0000
    58 C10         88.4490   115.1080   160.9920 C.3       1  UNK         0.0000
    59 H11         87.5230   115.6460   160.7430 H         1  UNK         0.0000
    60 H12         88.1290   114.3090   161.6720 H         1  UNK         0.0000
    61 C11         88.9110   116.4110   163.1930 C.3       1  UNK         0.0000
    62 H13         89.1470   115.5550   163.8410 H         1  UNK         0.0000
    63 C12         89.7930   113.3100   159.7400 C.ar      1  UNK         0.0000
    64 C13         89.6060   117.6760   163.7920 C.3       1  UNK         0.0000
    65 H14         89.2700   118.5570   163.2300 H         1  UNK         0.0000
    66 C14         89.0060   115.2730   158.5370 C.ar      1  UNK         0.0000
    67 C15         90.3580   112.8120   158.5330 C.ar      1  UNK         0.0000
    68 C16         89.5860   114.7550   157.3550 C.ar      1  UNK         0.0000
    69 C17         90.4350   121.8850   170.9960 C.ar      1  UNK         0.0000
    70 C18         89.2160   117.9020   165.2810 C.3       1  UNK         0.0000
    71 H15         89.3310   116.9720   165.8510 H         1  UNK         0.0000
    72 H16         88.1640   118.2070   165.3440 H         1  UNK         0.0000
    73 C19         90.0040   112.5690   160.9300 C.ar      1  UNK         0.0000
    74 H18         89.6230   112.9120   161.8860 H         1  UNK         0.0000
    75 C20         91.0880   111.6100   158.5230 C.ar      1  UNK         0.0000
    76 H19         91.5160   111.2380   157.5950 H         1  UNK         0.0000
    77 C21         90.7350   111.3660   160.9180 C.ar      1  UNK         0.0000
    78 C22         91.2770   110.8810   159.7080 C.ar      1  UNK         0.0000
    79 C23         90.3890   119.6570   171.5900 C.ar      1  UNK         0.0000
    80 H21         89.8430   118.8340   172.0480 H         1  UNK         0.0000
    81 C24         89.5330   115.5680   156.1010 C.2       1  UNK         0.0000
    82 C25         88.3640   117.2690   157.3150 C.2       1  UNK         0.0000
    83 C26         90.9360   110.6020   162.2280 C.3       1  UNK         0.0000
    84 H26         90.5190   109.5890   162.1630 H         1  UNK         0.0000
    85 H27         92.0020   110.5120   162.4730 H         1  UNK         0.0000
    86 H28         90.4490   111.1010   163.0750 H         1  UNK         0.0000
    87 C27         92.0760   109.5780   159.6660 C.3       1  UNK         0.0000
    88 H32         91.4660   108.7270   159.9960 H         1  UNK         0.0000
    89 H33         92.9580   109.6320   160.3170 H         1  UNK         0.0000
    90 H34         92.4330   109.3480   158.6540 H         1  UNK         0.0000
@<TRIPOS>BOND
     1     1     8   1
     2     1    11   1
     3     1    17   1
     4     1    19   1
     5     2    11   1
     6     2    14   1
     7     2    21   1
     8     2    24   1
     9     3    45   1
    10     3    47   1
    11     4     5   1
    12     4    41   1
    13     6     7   1
    14     6    43   1
    15     8    49   1
    16     9    10   1
    17     9    56   1
    18    12    13   1
    19    12    61   1
    20    14    70   1
    21    15    16   1
    22    15    64   1
    23    17    18   1
    24    19    20   1
    25    21    22   1
    26    23    81   2
    27    24    25   1
    28    26    82   2
    29    27    45   1
    30    27    52   1
    31    27    53   1
    32    28    58   1
    33    28    63  ar
    34    28    66  ar
    35    29    53   2
    36    29    55   1
    37    30    52  ar
    38    30    79  ar
    39    31    32   1
    40    31    67  ar
    41    31    68  ar
    42    33    34   1
    43    33    66   1
    44    33    82  am
    45    35    69  ar
    46    35    79  ar
    47    36    37   1
    48    36    81  am
    49    36    82  am
    50    38    39   1
    51    38    40   1
    52    38    69   1
    53    41    42   1
    54    41    43   1
    55    41    45   1
    56    43    44   1
    57    43    47   1
    58    45    46   1
    59    47    48   1
    60    47    49   1
    61    49    50   1
    62    49    51   1
    63    52    55  ar
    64    53    54   1
    65    55    69  ar
    66    56    57   1
    67    56    58   1
    68    56    61   1
    69    58    59   1
    70    58    60   1
    71    61    62   1
    72    61    64   1
    73    63    67  ar
    74    63    73  ar
    75    64    65   1
    76    64    70   1
    77    66    68  ar
    78    67    75  ar
    79    68    81   1
    80    70    71   1
    81    70    72   1
    82    73    74   1
    83    73    77  ar
    84    75    76   1
    85    75    78  ar
    86    77    78  ar
    87    77    83   1
    88    78    87   1
    89    79    80   1
    90    83    84   1
    91    83    85   1
    92    83    86   1
    93    87    88   1
    94    87    89   1
    95    87    90   1

