@<TRIPOS>COMMENT
   inp11.mol2              1    of   10
                  SCORE =  -311.6051
               dG-SCORE =    -7.3347
      LIGAND_EFFICIENCY =    -1.0052
  NUMBER_OF_HEAVY_ATOMS =         31
                    ASA =  -244.6750
                    ELE =     0.0000
                    HYD =   -66.9301
                    VDW =     0.0000
                   RMSD =    28.7838
 MOLECULAR_WEIGHT = 459.37
@<TRIPOS>MOLECULE
inp11.mol2                                                                      
   55   57    0    0    0
SMALL       
GASTEIGER      
 
@<TRIPOS>ATOM
    1 P        88.4319   81.4630   71.0706 P.3      1 UNK          0.0000
    2 O        93.4547   79.8019   75.4354 O.3      1 UNK          0.0000
    3 H        93.3807   80.0585   74.4943 H        1 UNK          0.0000
    4 O        89.8462   79.0960   75.7787 O.3      1 UNK          0.0000
    5 H        89.3066   78.8550   75.0008 H        1 UNK          0.0000
    6 O        91.0800   78.7679   73.1083 O.3      1 UNK          0.0000
    7 H        90.7058   78.8763   72.2120 H        1 UNK          0.0000
    8 O        89.7136   80.9271   71.8876 O.3      1 UNK          0.0000
    9 O        98.0965   79.8475   78.0800 O.2      1 UNK          0.0000
   10 O        94.8321   82.1069   80.1809 O.2      1 UNK          0.0000
   11 O        88.8275   81.6070   69.5227 O.3      1 UNK          0.0000
   12 H        89.0759   80.7355   69.1694 H        1 UNK          0.0000
   13 O        87.2309   80.4080   71.2242 O.3      1 UNK          0.0000
   14 H        86.4554   80.7382   70.7375 H        1 UNK          0.0000
   15 O        87.9969   82.8973   71.6472 O.3      1 UNK          0.0000
   16 H        88.6937   83.5463   71.4482 H        1 UNK          0.0000
   17 N        93.5741   78.2746   77.8094 N.pl3    1 UNK          0.0000
   18 N        96.2931   77.8533   77.1804 N.pl3    1 UNK          0.0000
   19 H        97.2356   77.7890   76.8025 H        1 UNK          0.0000
   20 N        94.2158   80.2601   79.0780 N.am     1 UNK          0.0000
   21 H        93.2619   80.4121   79.3785 H        1 UNK          0.0000
   22 N        96.5076   81.0313   79.1464 N.am     1 UNK          0.0000
   23 H        97.1805   81.7144   79.4702 H        1 UNK          0.0000
   24 C        92.2704   79.0691   75.7742 C.3      1 UNK          0.0000
   25 H        92.2890   78.0996   75.2592 H        1 UNK          0.0000
   26 C        92.2630   78.7920   77.3042 C.3      1 UNK          0.0000
   27 H        91.4596   78.0802   77.5407 H        1 UNK          0.0000
   28 H        92.0029   79.7236   77.8239 H        1 UNK          0.0000
   29 C        90.9846   79.8248   75.3170 C.3      1 UNK          0.0000
   30 H        90.9818   80.8201   75.7805 H        1 UNK          0.0000
   31 C        94.0300   76.9791   77.4734 C.ar     1 UNK          0.0000
   32 C        94.5500   79.1726   78.2846 C.2      1 UNK          0.0000
   33 C        90.9257   80.0240   73.7705 C.3      1 UNK          0.0000
   34 H        91.7509   80.6852   73.4790 H        1 UNK          0.0000
   35 C        95.3931   76.7824   77.1264 C.ar     1 UNK          0.0000
   36 C        95.9013   78.9785   77.9159 C.2      1 UNK          0.0000
   37 C        93.1505   75.8781   77.4747 C.ar     1 UNK          0.0000
   38 H        92.1089   75.9995   77.7592 H        1 UNK          0.0000
   39 C        89.6181   80.7120   73.3033 C.3      1 UNK          0.0000
   40 H        89.4897   81.6724   73.8205 H        1 UNK          0.0000
   41 H        88.7528   80.0760   73.5302 H        1 UNK          0.0000
   42 C        95.8546   75.5053   76.7674 C.ar     1 UNK          0.0000
   43 H        96.9002   75.3535   76.5055 H        1 UNK          0.0000
   44 C        93.6147   74.5970   77.1163 C.ar     1 UNK          0.0000
   45 C        94.9709   74.4097   76.7575 C.ar     1 UNK          0.0000
   46 C        96.9238   79.9664   78.3725 C.2      1 UNK          0.0000
   47 C        95.1761   81.1700   79.4944 C.2      1 UNK          0.0000
   48 C        92.6376   73.4199   77.1282 C.3      1 UNK          0.0000
   49 H        92.6036   72.9220   76.1512 H        1 UNK          0.0000
   50 H        91.6141   73.7379   77.3657 H        1 UNK          0.0000
   51 H        92.9295   72.6732   77.8773 H        1 UNK          0.0000
   52 C        95.5000   73.0297   76.3674 C.3      1 UNK          0.0000
   53 H        96.5775   73.0469   76.1610 H        1 UNK          0.0000
   54 H        95.3352   72.2996   77.1704 H        1 UNK          0.0000
   55 H        95.0010   72.6561   75.4643 H        1 UNK          0.0000
@<TRIPOS>BOND
     1     1     8   1 
     2     1    11   1 
     3     1    13   1 
     4     1    15   1 
     5     2     3   1 
     6     2    24   1 
     7     4     5   1 
     8     4    29   1 
     9     6     7   1 
    10     6    33   1 
    11     8    39   1 
    12     9    46   2 
    13    10    47   2 
    14    11    12   1 
    15    13    14   1 
    16    15    16   1 
    17    17    26   1 
    18    17    31   1 
    19    17    32   1 
    20    18    19   1 
    21    18    35   1 
    22    18    36   1 
    23    20    21   1 
    24    20    32   1 
    25    20    47   am
    26    22    23   1 
    27    22    46   am
    28    22    47   am
    29    24    25   1 
    30    24    26   1 
    31    24    29   1 
    32    26    27   1 
    33    26    28   1 
    34    29    30   1 
    35    29    33   1 
    36    31    35   ar
    37    31    37   ar
    38    32    36   2 
    39    33    34   1 
    40    33    39   1 
    41    35    42   ar
    42    36    46   1 
    43    37    38   1 
    44    37    44   ar
    45    39    40   1 
    46    39    41   1 
    47    42    43   1 
    48    42    45   ar
    49    44    45   ar
    50    44    48   1 
    51    45    52   1 
    52    48    49   1 
    53    48    50   1 
    54    48    51   1 
    55    52    53   1 
    56    52    54   1 
    57    52    55   1 
 
