inp11.mol2
     Hgene          

 31 33  0  0  0  0               V2000
   88.4319   81.4630   71.0706 P   0  0  1  0  0
   93.4547   79.8019   75.4354 O   0  0  0  0  0
   89.8462   79.0960   75.7787 O   0  0  0  0  0
   91.0800   78.7679   73.1083 O   0  0  0  0  0
   89.7136   80.9271   71.8876 O   0  0  0  0  0
   98.0965   79.8475   78.0800 O   0  0  0  0  0
   94.8321   82.1069   80.1809 O   0  0  0  0  0
   88.8275   81.6070   69.5227 O   0  0  0  0  0
   87.2309   80.4080   71.2242 O   0  0  0  0  0
   87.9969   82.8973   71.6472 O   0  0  0  0  0
   93.5741   78.2746   77.8094 N   0  0  0  0  0
   96.2931   77.8533   77.1804 N   0  0  0  0  0
   94.2158   80.2601   79.0780 N   0  0  0  0  0
   96.5076   81.0313   79.1464 N   0  0  0  0  0
   92.2704   79.0691   75.7742 C   0  0  0  0  0
   92.2630   78.7920   77.3042 C   0  0  0  0  0
   90.9846   79.8248   75.3170 C   0  0  0  0  0
   94.0300   76.9791   77.4734 C   0  0  0  0  0
   94.5500   79.1726   78.2846 C   0  0  0  0  0
   90.9257   80.0240   73.7705 C   0  0  0  0  0
   95.3931   76.7824   77.1264 C   0  0  0  0  0
   95.9013   78.9785   77.9159 C   0  0  0  0  0
   93.1505   75.8781   77.4747 C   0  0  0  0  0
   89.6181   80.7120   73.3033 C   0  0  0  0  0
   95.8546   75.5053   76.7674 C   0  0  0  0  0
   93.6147   74.5970   77.1163 C   0  0  0  0  0
   94.9709   74.4097   76.7575 C   0  0  0  0  0
   96.9238   79.9664   78.3725 C   0  0  0  0  0
   95.1761   81.1700   79.4944 C   0  0  0  0  0
   92.6376   73.4199   77.1282 C   0  0  0  0  0
   95.5000   73.0297   76.3674 C   0  0  0  0  0
  1  5  1  0
  1  8  1  0
  1  9  1  0
  1 10  1  0
  2 15  1  0
  3 17  1  0
  4 20  1  0
  5 24  1  0
  6 28  2  0
  7 29  2  0
 11 16  1  0
 11 18  1  0
 11 19  1  0
 12 21  1  0
 12 22  1  0
 13 19  1  0
 13 29  1  0
 14 28  1  0
 14 29  1  0
 15 16  1  0
 15 17  1  0
 17 20  1  0
 18 21  4  0
 18 23  4  0
 19 22  2  0
 20 24  1  0
 21 25  4  0
 22 28  1  0
 23 26  4  0
 25 27  4  0
 26 27  4  0
 26 30  1  0
 27 31  1  0
M  END
$$$$
