inp11.mol2
     Hgene          

 31 33  0  0  0  0               V2000
   85.9445   82.0753   70.2602 P   0  0  1  0  0
   90.0484   78.6249   74.4720 O   0  0  0  0  0
   91.0240   81.2825   72.1710 O   0  0  0  0  0
   88.6051   81.7403   73.7537 O   0  0  0  0  0
   86.6791   81.2557   71.4569 O   0  0  0  0  0
   92.4720   74.8749   78.2129 O   0  0  0  0  0
   93.8524   74.5221   73.9234 O   0  0  0  0  0
   84.3900   82.3149   70.5004 O   0  0  0  0  0
   86.6210   83.5144   70.0871 O   0  0  0  0  0
   85.9795   81.2932   68.8752 O   0  0  0  0  0
   92.7629   78.9063   75.4453 N   0  0  0  0  0
   92.4255   77.7596   78.0967 N   0  0  0  0  0
   93.3202   76.6113   74.6144 N   0  0  0  0  0
   93.1281   74.6294   76.0672 N   0  0  0  0  0
   90.8154   79.7679   74.0655 C   0  0  0  0  0
   92.3594   79.4455   74.1001 C   0  0  0  0  0
   90.2157   80.2266   72.7014 C   0  0  0  0  0
   92.9114   79.7268   76.6087 C   0  0  0  0  0
   92.9232   77.4658   75.6523 C   0  0  0  0  0
   88.7061   80.6623   72.8196 C   0  0  0  0  0
   92.6971   79.1687   77.9355 C   0  0  0  0  0
   92.6751   76.9341   76.9830 C   0  0  0  0  0
   93.3197   81.1252   76.5113 C   0  0  0  0  0
   88.1175   81.0913   71.4456 C   0  0  0  0  0
   92.8098   79.9650   79.0872 C   0  0  0  0  0
   93.5082   81.8992   77.6955 C   0  0  0  0  0
   93.2314   81.3415   78.9819 C   0  0  0  0  0
   92.7401   75.4045   77.1626 C   0  0  0  0  0
   93.4639   75.2069   74.8297 C   0  0  0  0  0
   94.0740   83.3355   77.5885 C   0  0  0  0  0
   93.4348   82.1729   80.2314 C   0  0  0  0  0
  1  5  1  0
  1  8  1  0
  1  9  1  0
  1 10  1  0
  2 15  1  0
  3 17  1  0
  4 20  1  0
  5 24  1  0
  6 28  2  0
  7 29  2  0
 11 16  1  0
 11 18  1  0
 11 19  1  0
 12 21  1  0
 12 22  1  0
 13 19  1  0
 13 29  1  0
 14 28  1  0
 14 29  1  0
 15 16  1  0
 15 17  1  0
 17 20  1  0
 18 21  4  0
 18 23  4  0
 19 22  2  0
 20 24  1  0
 21 25  4  0
 22 28  1  0
 23 26  4  0
 25 27  4  0
 26 27  4  0
 26 30  1  0
 27 31  1  0
M  END
$$$$
