inp11.mol2
     Hgene          

 31 33  0  0  0  0               V2000
   88.9662   82.0206   71.6654 P   0  0  1  0  0
   93.9486   79.6283   75.7265 O   0  0  0  0  0
   90.3979   78.6142   75.6797 O   0  0  0  0  0
   91.7474   79.0752   73.0859 O   0  0  0  0  0
   90.2570   81.3793   72.3865 O   0  0  0  0  0
   98.4759   79.3009   78.5439 O   0  0  0  0  0
   94.9698   80.7102   80.9721 O   0  0  0  0  0
   89.4034   82.5882   70.2301 O   0  0  0  0  0
   87.8485   80.8829   71.4777 O   0  0  0  0  0
   88.3982   83.2231   72.5656 O   0  0  0  0  0
   94.1056   77.5488   77.6327 N   0  0  0  0  0
   96.8700   77.4909   77.0663 N   0  0  0  0  0
   94.5419   79.1757   79.4008 N   0  0  0  0  0
   96.7611   80.0565   79.7896 N   0  0  0  0  0
   92.8153   78.7541   75.8010 C   0  0  0  0  0
   92.7761   78.0893   77.2061 C   0  0  0  0  0
   91.4902   79.5134   75.4831 C   0  0  0  0  0
   94.6749   76.4190   77.0013 C   0  0  0  0  0
   94.9895   78.3568   78.3747 C   0  0  0  0  0
   91.4702   80.1028   74.0385 C   0  0  0  0  0
   96.0608   76.4122   76.6905 C   0  0  0  0  0
   96.3641   78.3572   78.0430 C   0  0  0  0  0
   93.8865   75.2983   76.6725 C   0  0  0  0  0
   90.1292   80.7981   73.6925 C   0  0  0  0  0
   96.6349   75.3065   76.0420 C   0  0  0  0  0
   94.4637   74.1888   76.0237 C   0  0  0  0  0
   95.8423   74.1937   75.7035 C   0  0  0  0  0
   97.2879   79.2598   78.7927 C   0  0  0  0  0
   95.4113   80.0093   80.0883 C   0  0  0  0  0
   93.5838   72.9855   75.6801 C   0  0  0  0  0
   96.4931   73.0015   75.0023 C   0  0  0  0  0
  1  5  1  0
  1  8  1  0
  1  9  1  0
  1 10  1  0
  2 15  1  0
  3 17  1  0
  4 20  1  0
  5 24  1  0
  6 28  2  0
  7 29  2  0
 11 16  1  0
 11 18  1  0
 11 19  1  0
 12 21  1  0
 12 22  1  0
 13 19  1  0
 13 29  1  0
 14 28  1  0
 14 29  1  0
 15 16  1  0
 15 17  1  0
 17 20  1  0
 18 21  4  0
 18 23  4  0
 19 22  2  0
 20 24  1  0
 21 25  4  0
 22 28  1  0
 23 26  4  0
 25 27  4  0
 26 27  4  0
 26 30  1  0
 27 31  1  0
M  END
$$$$
