@<TRIPOS>COMMENT
   inp11.mol2              2    of   10
                  SCORE =  -343.7973
               dG-SCORE =    -8.6593
      LIGAND_EFFICIENCY =    -0.6487
  NUMBER_OF_HEAVY_ATOMS =         53
                    ASA =  -189.7113
                    ELE =     0.0000
                    HYD =  -154.0860
                    VDW =     0.0000
                   RMSD =    31.1212
 MOLECULAR_WEIGHT = 789.59
@<TRIPOS>MOLECULE
inp11.mol2                                                                      
   90   95    0    0    0
SMALL       
GASTEIGER      
 
@<TRIPOS>ATOM
    1 P        93.5115   76.5930   71.3012 P.3      1 UNK          0.0000
    2 P        92.0807   78.7218   72.6720 P.3      1 UNK          0.0000
    3 O        94.3378   75.6639   74.2647 O.3      1 UNK          0.0000
    4 O        93.0239   77.9317   76.3281 O.3      1 UNK          0.0000
    5 H        92.8312   78.0338   77.2776 H        1 UNK          0.0000
    6 O        95.2451   79.0328   75.1522 O.3      1 UNK          0.0000
    7 H        95.9952   79.2789   75.7255 H        1 UNK          0.0000
    8 O        95.1133   76.6609   71.4866 O.3      1 UNK          0.0000
    9 O        89.0363   83.5266   69.5401 O.3      1 UNK          0.0000
   10 H        89.5462   83.6026   68.7046 H        1 UNK          0.0000
   11 O        92.8319   78.0551   71.4065 O.3      1 UNK          0.0000
   12 O        89.5859   80.9312   68.9097 O.3      1 UNK          0.0000
   13 H        88.8339   80.6446   69.4640 H        1 UNK          0.0000
   14 O        92.4547   80.2902   72.8051 O.3      1 UNK          0.0000
   15 O        90.0869   79.8808   71.4525 O.3      1 UNK          0.0000
   16 H        89.3480   80.5174   71.5298 H        1 UNK          0.0000
   17 O        93.2334   76.0312   69.8207 O.3      1 UNK          0.0000
   18 H        93.6710   76.6245   69.1854 H        1 UNK          0.0000
   19 O        92.8783   75.5417   72.3418 O.3      1 UNK          0.0000
   20 H        91.9416   75.4101   72.1170 H        1 UNK          0.0000
   21 O        90.4830   78.5540   72.5870 O.3      1 UNK          0.0000
   22 H        90.2720   77.6123   72.4688 H        1 UNK          0.0000
   23 O        87.5779   87.4081   74.8666 O.2      1 UNK          0.0000
   24 O        92.5956   77.9809   73.9966 O.3      1 UNK          0.0000
   25 H        92.1552   78.3819   74.7685 H        1 UNK          0.0000
   26 O        91.5196   85.2681   74.7325 O.2      1 UNK          0.0000
   27 N        94.0695   74.5258   76.3271 N.ar     1 UNK          0.0000
   28 N        88.0555   83.4515   72.1609 N.ar     1 UNK          0.0000
   29 N        93.8913   72.5419   77.4557 N.ar     1 UNK          0.0000
   30 N        96.5414   74.6275   76.3610 N.ar     1 UNK          0.0000
   31 N        86.3813   85.5721   73.0992 N.ar     1 UNK          0.0000
   32 H        85.7922   86.3145   73.4721 H        1 UNK          0.0000
   33 N        89.8673   84.3981   73.5033 N.am     1 UNK          0.0000
   34 H        90.4999   83.6696   73.2017 H        1 UNK          0.0000
   35 N        97.5551   72.7325   77.4831 N.ar     1 UNK          0.0000
   36 N        89.5787   86.3863   74.8455 N.am     1 UNK          0.0000
   37 H        89.9754   87.0654   75.4826 H        1 UNK          0.0000
   38 N        96.2340   71.0265   78.4102 N.pl3    1 UNK          0.0000
   39 H        97.0560   70.6961   78.8938 H        1 UNK          0.0000
   40 H        95.3277   70.7682   78.7746 H        1 UNK          0.0000
   41 C        94.1562   77.0604   76.2047 C.3      1 UNK          0.0000
   42 H        94.6396   76.8978   77.1766 H        1 UNK          0.0000
   43 C        95.1652   77.6055   75.1769 C.3      1 UNK          0.0000
   44 H        96.1541   77.1829   75.3971 H        1 UNK          0.0000
   45 C        93.6955   75.7203   75.5611 C.3      1 UNK          0.0000
   46 H        92.6049   75.7145   75.4365 H        1 UNK          0.0000
   47 C        94.6591   77.0054   73.8619 C.3      1 UNK          0.0000
   48 H        93.7573   77.5370   73.5305 H        1 UNK          0.0000
   49 C        95.7303   77.0063   72.7432 C.3      1 UNK          0.0000
   50 H        96.1620   78.0124   72.6676 H        1 UNK          0.0000
   51 H        96.5375   76.3079   72.9972 H        1 UNK          0.0000
   52 C        95.3320   74.0911   76.6228 C.ar     1 UNK          0.0000
   53 C        93.2227   73.5407   76.8592 C.ar     1 UNK          0.0000
   54 H        92.1451   73.6060   76.7682 H        1 UNK          0.0000
   55 C        95.1846   72.9077   77.2946 C.ar     1 UNK          0.0000
   56 C        89.8521   82.7933   70.4577 C.3      1 UNK          0.0000
   57 H        90.6476   83.4545   70.8284 H        1 UNK          0.0000
   58 C        88.9730   82.3633   71.6694 C.3      1 UNK          0.0000
   59 H        89.6353   82.0411   72.4858 H        1 UNK          0.0000
   60 H        88.4012   81.4646   71.4076 H        1 UNK          0.0000
   61 C        90.5424   81.5812   69.7508 C.3      1 UNK          0.0000
   62 H        91.3649   81.9645   69.1305 H        1 UNK          0.0000
   63 C        86.7330   83.6239   71.6531 C.ar     1 UNK          0.0000
   64 C        91.1409   80.5541   70.7652 C.3      1 UNK          0.0000
   65 H        91.7241   79.8113   70.2056 H        1 UNK          0.0000
   66 C        88.5521   84.4308   73.0525 C.ar     1 UNK          0.0000
   67 C        85.9078   84.6754   72.1401 C.ar     1 UNK          0.0000
   68 C        87.7111   85.4736   73.5075 C.ar     1 UNK          0.0000
   69 C        96.3305   72.2171   77.7325 C.ar     1 UNK          0.0000
   70 C        92.1082   81.2337   71.7766 C.3      1 UNK          0.0000
   71 H        91.6408   82.1257   72.2112 H        1 UNK          0.0000
   72 H        93.0206   81.5516   71.2569 H        1 UNK          0.0000
   73 C        86.1978   82.7599   70.6647 C.ar     1 UNK          0.0000
   74 H        86.7846   81.9521   70.2407 H        1 UNK          0.0000
   75 C        84.6002   84.8483   71.6521 C.ar     1 UNK          0.0000
   76 H        83.9827   85.6642   72.0204 H        1 UNK          0.0000
   77 C        84.8887   82.9346   70.1774 C.ar     1 UNK          0.0000
   78 C        84.0848   83.9840   70.6730 C.ar     1 UNK          0.0000
   79 C        97.5972   73.9098   76.8110 C.ar     1 UNK          0.0000
   80 H        98.5855   74.3209   76.6125 H        1 UNK          0.0000
   81 C        88.2628   86.4954   74.4499 C.2      1 UNK          0.0000
   82 C        90.3653   85.3517   74.3767 C.2      1 UNK          0.0000
   83 C        84.3557   81.9765   69.1106 C.3      1 UNK          0.0000
   84 H        85.1060   81.2199   68.8481 H        1 UNK          0.0000
   85 H        83.4584   81.4523   69.4636 H        1 UNK          0.0000
   86 H        84.0755   82.5009   68.1886 H        1 UNK          0.0000
   87 C        82.6596   84.1970   70.1617 C.3      1 UNK          0.0000
   88 H        82.1856   85.0569   70.6528 H        1 UNK          0.0000
   89 H        82.0341   83.3151   70.3505 H        1 UNK          0.0000
   90 H        82.6355   84.3881   69.0812 H        1 UNK          0.0000
@<TRIPOS>BOND
     1     1     8   1 
     2     1    11   1 
     3     1    17   1 
     4     1    19   1 
     5     2    11   1 
     6     2    14   1 
     7     2    21   1 
     8     2    24   1 
     9     3    45   1 
    10     3    47   1 
    11     4     5   1 
    12     4    41   1 
    13     6     7   1 
    14     6    43   1 
    15     8    49   1 
    16     9    10   1 
    17     9    56   1 
    18    12    13   1 
    19    12    61   1 
    20    14    70   1 
    21    15    16   1 
    22    15    64   1 
    23    17    18   1 
    24    19    20   1 
    25    21    22   1 
    26    23    81   2 
    27    24    25   1 
    28    26    82   2 
    29    27    45   1 
    30    27    52   1 
    31    27    53   1 
    32    28    58   1 
    33    28    63   ar
    34    28    66   ar
    35    29    53   2 
    36    29    55   1 
    37    30    52   ar
    38    30    79   ar
    39    31    32   1 
    40    31    67   ar
    41    31    68   ar
    42    33    34   1 
    43    33    66   1 
    44    33    82   am
    45    35    69   ar
    46    35    79   ar
    47    36    37   1 
    48    36    81   am
    49    36    82   am
    50    38    39   1 
    51    38    40   1 
    52    38    69   1 
    53    41    42   1 
    54    41    43   1 
    55    41    45   1 
    56    43    44   1 
    57    43    47   1 
    58    45    46   1 
    59    47    48   1 
    60    47    49   1 
    61    49    50   1 
    62    49    51   1 
    63    52    55   ar
    64    53    54   1 
    65    55    69   ar
    66    56    57   1 
    67    56    58   1 
    68    56    61   1 
    69    58    59   1 
    70    58    60   1 
    71    61    62   1 
    72    61    64   1 
    73    63    67   ar
    74    63    73   ar
    75    64    65   1 
    76    64    70   1 
    77    66    68   ar
    78    67    75   ar
    79    68    81   1 
    80    70    71   1 
    81    70    72   1 
    82    73    74   1 
    83    73    77   ar
    84    75    76   1 
    85    75    78   ar
    86    77    78   ar
    87    77    83   1 
    88    78    87   1 
    89    79    80   1 
    90    83    84   1 
    91    83    85   1 
    92    83    86   1 
    93    87    88   1 
    94    87    89   1 
    95    87    90   1 
 
