@<TRIPOS>COMMENT
   inp11.mol2              6    of   10
                  SCORE =  -300.8083
               dG-SCORE =    -5.5987
      LIGAND_EFFICIENCY =    -0.5676
  NUMBER_OF_HEAVY_ATOMS =         53
                    ASA =  -259.2644
                    ELE =     0.0000
                    HYD =   -35.0303
                    VDW =    -6.5137
                   RMSD =    31.2320
 MOLECULAR_WEIGHT = 789.59
@<TRIPOS>MOLECULE
inp11.mol2                                                                      
   90   95    0    0    0
SMALL       
GASTEIGER      
 
@<TRIPOS>ATOM
    1 P        89.4008   84.4775   74.5274 P.3      1 UNK          0.0000
    2 P        89.7299   81.5980   73.7926 P.3      1 UNK          0.0000
    3 O        87.3152   84.4575   71.9541 O.3      1 UNK          0.0000
    4 O        87.2317   81.2980   70.4917 O.3      1 UNK          0.0000
    5 H        86.3309   80.9420   70.4134 H        1 UNK          0.0000
    6 O        89.6320   82.7539   69.7728 O.3      1 UNK          0.0000
    7 H        89.5109   82.5474   68.8278 H        1 UNK          0.0000
    8 O        89.6723   85.5243   73.2973 O.3      1 UNK          0.0000
    9 O        94.8129   78.0119   76.6459 O.3      1 UNK          0.0000
   10 H        95.5483   78.6416   76.7757 H        1 UNK          0.0000
   11 O        90.1930   83.0734   74.3064 O.3      1 UNK          0.0000
   12 O        93.3302   80.1625   77.4737 O.3      1 UNK          0.0000
   13 H        92.5274   79.6320   77.6603 H        1 UNK          0.0000
   14 O        90.9685   80.7249   73.1804 O.3      1 UNK          0.0000
   15 O        91.2571   79.9764   75.8210 O.3      1 UNK          0.0000
   16 H        91.3047   79.0772   75.4381 H        1 UNK          0.0000
   17 O        89.9546   85.1817   75.8678 O.3      1 UNK          0.0000
   18 H        90.9014   85.3756   75.7458 H        1 UNK          0.0000
   19 O        87.8194   84.2707   74.7595 O.3      1 UNK          0.0000
   20 H        87.6965   83.6258   75.4731 H        1 UNK          0.0000
   21 O        88.8759   80.8227   74.8821 O.3      1 UNK          0.0000
   22 H        88.3020   81.4624   75.3258 H        1 UNK          0.0000
   23 O        94.7161   72.4759   72.6167 O.2      1 UNK          0.0000
   24 O        88.6028   81.5871   72.6982 O.3      1 UNK          0.0000
   25 H        88.4257   80.6700   72.4234 H        1 UNK          0.0000
   26 O        93.4812   76.4096   70.6634 O.2      1 UNK          0.0000
   27 N        85.2654   84.1003   71.1307 N.ar     1 UNK          0.0000
   28 N        93.0788   76.2299   75.3268 N.ar     1 UNK          0.0000
   29 N        83.1077   84.6362   70.8825 N.ar     1 UNK          0.0000
   30 N        86.1988   85.6826   69.4904 N.ar     1 UNK          0.0000
   31 N        93.6131   73.3720   75.2183 N.ar     1 UNK          0.0000
   32 H        93.7369   72.3635   75.1215 H        1 UNK          0.0000
   33 N        93.3652   76.3372   72.8850 N.am     1 UNK          0.0000
   34 H        93.0260   77.2915   72.8936 H        1 UNK          0.0000
   35 N        84.4380   86.7231   68.1626 N.ar     1 UNK          0.0000
   36 N        94.1246   74.4213   71.5654 N.am     1 UNK          0.0000
   37 H        94.2987   74.0331   70.6612 H        1 UNK          0.0000
   38 N        82.1737   86.5317   68.8068 N.pl3    1 UNK          0.0000
   39 H        81.8780   87.1601   68.0973 H        1 UNK          0.0000
   40 H        81.4891   86.1112   69.4165 H        1 UNK          0.0000
   41 C        87.1474   82.7155   70.2790 C.3      1 UNK          0.0000
   42 H        86.5692   82.8811   69.3631 H        1 UNK          0.0000
   43 C        88.4853   83.5046   70.1897 C.3      1 UNK          0.0000
   44 H        88.3261   84.3409   69.4981 H        1 UNK          0.0000
   45 C        86.4603   83.3964   71.5049 C.3      1 UNK          0.0000
   46 H        86.2571   82.6901   72.3051 H        1 UNK          0.0000
   47 C        88.6377   84.0898   71.5997 C.3      1 UNK          0.0000
   48 H        88.9500   83.2779   72.2557 H        1 UNK          0.0000
   49 C        89.6136   85.2547   71.8598 C.3      1 UNK          0.0000
   50 H        90.6036   84.9508   71.4927 H        1 UNK          0.0000
   51 H        89.3023   86.1422   71.2934 H        1 UNK          0.0000
   52 C        85.2008   85.0602   70.2044 C.ar     1 UNK          0.0000
   53 C        83.9937   84.0460   71.6332 C.ar     1 UNK          0.0000
   54 H        83.7632   83.4502   72.5024 H        1 UNK          0.0000
   55 C        83.8561   85.3125   70.0339 C.ar     1 UNK          0.0000
   56 C        93.9444   78.6033   75.6689 C.3      1 UNK          0.0000
   57 H        94.4571   78.6351   74.6998 H        1 UNK          0.0000
   58 C        92.7169   77.6806   75.4665 C.3      1 UNK          0.0000
   59 H        92.1539   78.0332   74.5861 H        1 UNK          0.0000
   60 H        92.0141   77.8218   76.2965 H        1 UNK          0.0000
   61 C        93.5880   80.0870   76.0539 C.3      1 UNK          0.0000
   62 H        94.4616   80.7073   75.8169 H        1 UNK          0.0000
   63 C        92.9399   75.4140   76.5103 C.ar     1 UNK          0.0000
   64 C        92.3511   80.6749   75.2898 C.3      1 UNK          0.0000
   65 H        92.2459   81.7426   75.5228 H        1 UNK          0.0000
   66 C        93.4482   75.6170   74.1178 C.ar     1 UNK          0.0000
   67 C        93.2173   73.9770   76.4050 C.ar     1 UNK          0.0000
   68 C        93.8178   74.1971   74.0477 C.ar     1 UNK          0.0000
   69 C        83.4719   86.2057   69.0018 C.ar     1 UNK          0.0000
   70 C        92.3033   80.5168   73.7330 C.3      1 UNK          0.0000
   71 H        92.6361   79.5066   73.4607 H        1 UNK          0.0000
   72 H        93.0108   81.2189   73.2727 H        1 UNK          0.0000
   73 C        92.5069   75.9978   77.7137 C.ar     1 UNK          0.0000
   74 H        92.2338   77.0450   77.8216 H        1 UNK          0.0000
   75 C        93.0843   73.1900   77.5953 C.ar     1 UNK          0.0000
   76 H        93.2442   72.1160   77.5538 H        1 UNK          0.0000
   77 C        92.4302   75.2184   78.8775 C.ar     1 UNK          0.0000
   78 C        92.7897   73.8406   78.8042 C.ar     1 UNK          0.0000
   79 C        85.7684   86.4522   68.4531 C.ar     1 UNK          0.0000
   80 H        86.5281   86.8746   67.8002 H        1 UNK          0.0000
   81 C        94.2915   73.6266   72.7340 C.2      1 UNK          0.0000
   82 C        93.6600   75.7515   71.6699 C.2      1 UNK          0.0000
   83 C        91.9724   75.9439   80.1243 C.3      1 UNK          0.0000
   84 H        92.7813   75.9431   80.8636 H        1 UNK          0.0000
   85 H        91.7147   76.9841   79.9145 H        1 UNK          0.0000
   86 H        91.1231   75.4730   80.6186 H        1 UNK          0.0000
   87 C        92.8786   73.0264   80.0691 C.3      1 UNK          0.0000
   88 H        93.1352   71.9955   79.8036 H        1 UNK          0.0000
   89 H        91.9228   73.0178   80.6067 H        1 UNK          0.0000
   90 H        93.6682   73.4025   80.7237 H        1 UNK          0.0000
@<TRIPOS>BOND
     1     1     8   1 
     2     1    11   1 
     3     1    17   1 
     4     1    19   1 
     5     2    11   1 
     6     2    14   1 
     7     2    21   1 
     8     2    24   1 
     9     3    45   1 
    10     3    47   1 
    11     4     5   1 
    12     4    41   1 
    13     6     7   1 
    14     6    43   1 
    15     8    49   1 
    16     9    10   1 
    17     9    56   1 
    18    12    13   1 
    19    12    61   1 
    20    14    70   1 
    21    15    16   1 
    22    15    64   1 
    23    17    18   1 
    24    19    20   1 
    25    21    22   1 
    26    23    81   2 
    27    24    25   1 
    28    26    82   2 
    29    27    45   1 
    30    27    52   1 
    31    27    53   1 
    32    28    58   1 
    33    28    63   ar
    34    28    66   ar
    35    29    53   2 
    36    29    55   1 
    37    30    52   ar
    38    30    79   ar
    39    31    32   1 
    40    31    67   ar
    41    31    68   ar
    42    33    34   1 
    43    33    66   1 
    44    33    82   am
    45    35    69   ar
    46    35    79   ar
    47    36    37   1 
    48    36    81   am
    49    36    82   am
    50    38    39   1 
    51    38    40   1 
    52    38    69   1 
    53    41    42   1 
    54    41    43   1 
    55    41    45   1 
    56    43    44   1 
    57    43    47   1 
    58    45    46   1 
    59    47    48   1 
    60    47    49   1 
    61    49    50   1 
    62    49    51   1 
    63    52    55   ar
    64    53    54   1 
    65    55    69   ar
    66    56    57   1 
    67    56    58   1 
    68    56    61   1 
    69    58    59   1 
    70    58    60   1 
    71    61    62   1 
    72    61    64   1 
    73    63    67   ar
    74    63    73   ar
    75    64    65   1 
    76    64    70   1 
    77    66    68   ar
    78    67    75   ar
    79    68    81   1 
    80    70    71   1 
    81    70    72   1 
    82    73    74   1 
    83    73    77   ar
    84    75    76   1 
    85    75    78   ar
    86    77    78   ar
    87    77    83   1 
    88    78    87   1 
    89    79    80   1 
    90    83    84   1 
    91    83    85   1 
    92    83    86   1 
    93    87    88   1 
    94    87    89   1 
    95    87    90   1 
 
