@<TRIPOS>COMMENT
   inp11.mol2              8    of   10
                  SCORE =  -254.8703
               dG-SCORE =    -4.4312
      LIGAND_EFFICIENCY =    -0.4809
  NUMBER_OF_HEAVY_ATOMS =         53
                    ASA =  -211.3981
                    ELE =     0.0000
                    HYD =   -36.8839
                    VDW =    -6.5884
                   RMSD =    29.8904
 MOLECULAR_WEIGHT = 789.59
@<TRIPOS>MOLECULE
inp11.mol2                                                                      
   90   95    0    0    0
SMALL       
GASTEIGER      
 
@<TRIPOS>ATOM
    1 P        93.1969   81.3489   75.7794 P.3      1 UNK          0.0000
    2 P        91.4449   80.1733   73.6688 P.3      1 UNK          0.0000
    3 O        90.5126   83.1800   76.2099 O.3      1 UNK          0.0000
    4 O        88.1691   82.6734   73.7736 O.3      1 UNK          0.0000
    5 H        87.2046   82.6413   73.8943 H        1 UNK          0.0000
    6 O        90.2372   84.2247   72.7950 O.3      1 UNK          0.0000
    7 H        89.5765   84.8151   72.3949 H        1 UNK          0.0000
    8 O        93.3894   82.9675   75.6877 O.3      1 UNK          0.0000
    9 O        95.3905   76.9436   72.9952 O.3      1 UNK          0.0000
   10 H        95.9312   77.7343   72.7982 H        1 UNK          0.0000
   11 O        92.8378   80.6855   74.3408 O.3      1 UNK          0.0000
   12 O        95.2952   78.4655   70.4129 O.3      1 UNK          0.0000
   13 H        95.8416   78.7531   71.1696 H        1 UNK          0.0000
   14 O        91.4936   80.2444   72.0332 O.3      1 UNK          0.0000
   15 O        92.2428   77.6023   72.2869 O.3      1 UNK          0.0000
   16 H        91.8728   77.1248   71.5282 H        1 UNK          0.0000
   17 O        94.5926   80.7428   76.3022 O.3      1 UNK          0.0000
   18 H        95.2924   80.9782   75.6697 H        1 UNK          0.0000
   19 O        92.1354   80.9638   76.9228 O.3      1 UNK          0.0000
   20 H        92.1333   79.9970   76.9988 H        1 UNK          0.0000
   21 O        90.9733   78.7533   74.2198 O.3      1 UNK          0.0000
   22 H        91.2695   78.6382   75.1317 H        1 UNK          0.0000
   23 O        96.5702   70.3891   73.8430 O.2      1 UNK          0.0000
   24 O        90.1575   80.9658   74.1036 O.3      1 UNK          0.0000
   25 H        89.4029   80.6472   73.5784 H        1 UNK          0.0000
   26 O        96.1181   71.8904   69.6111 O.2      1 UNK          0.0000
   27 N        88.6906   83.6272   77.2382 N.ar     1 UNK          0.0000
   28 N        94.1335   74.4050   73.0867 N.ar     1 UNK          0.0000
   29 N        87.9208   83.9153   79.3164 N.ar     1 UNK          0.0000
   30 N        89.2579   86.0535   76.7936 N.ar     1 UNK          0.0000
   31 N        94.7922   72.2961   74.9468 N.ar     1 UNK          0.0000
   32 H        95.0397   71.5057   75.5525 H        1 UNK          0.0000
   33 N        95.1193   73.0822   71.2355 N.am     1 UNK          0.0000
   34 H        94.8147   73.7682   70.5580 H        1 UNK          0.0000
   35 N        87.9310   87.5262   78.2353 N.ar     1 UNK          0.0000
   36 N        96.3371   71.0626   71.6731 N.am     1 UNK          0.0000
   37 H        96.8895   70.3009   71.3307 H        1 UNK          0.0000
   38 N        86.9610   86.6659   80.2178 N.pl3    1 UNK          0.0000
   39 H        86.7206   87.5966   80.4954 H        1 UNK          0.0000
   40 H        86.6412   85.8776   80.7643 H        1 UNK          0.0000
   41 C        88.6764   83.6427   74.6925 C.3      1 UNK          0.0000
   42 H        87.9202   84.4212   74.8491 H        1 UNK          0.0000
   43 C        90.0202   84.2444   74.2109 C.3      1 UNK          0.0000
   44 H        90.0753   85.2712   74.5869 H        1 UNK          0.0000
   45 C        89.1041   82.9746   76.0350 C.3      1 UNK          0.0000
   46 H        88.8352   81.9156   76.0684 H        1 UNK          0.0000
   47 C        91.0781   83.4035   74.9343 C.3      1 UNK          0.0000
   48 H        91.1404   82.4360   74.4356 H        1 UNK          0.0000
   49 C        92.5191   83.9452   75.0413 C.3      1 UNK          0.0000
   50 H        92.8734   84.1321   74.0195 H        1 UNK          0.0000
   51 H        92.5256   84.9021   75.5788 H        1 UNK          0.0000
   52 C        88.7765   84.9665   77.5078 C.ar     1 UNK          0.0000
   53 C        88.2399   83.0033   78.3861 C.ar     1 UNK          0.0000
   54 H        88.1241   81.9360   78.4769 H        1 UNK          0.0000
   55 C        88.1368   85.1135   78.7134 C.ar     1 UNK          0.0000
   56 C        94.8457   76.4827   71.7489 C.3      1 UNK          0.0000
   57 H        95.6389   76.0156   71.1512 H        1 UNK          0.0000
   58 C        93.7638   75.4157   72.0509 C.3      1 UNK          0.0000
   59 H        93.5373   74.8921   71.1074 H        1 UNK          0.0000
   60 H        92.8336   75.8966   72.3364 H        1 UNK          0.0000
   61 C        94.2267   77.6612   70.9173 C.3      1 UNK          0.0000
   62 H        93.6579   77.2388   70.0767 H        1 UNK          0.0000
   63 C        93.8156   74.5528   74.5181 C.ar     1 UNK          0.0000
   64 C        93.2370   78.4931   71.7989 C.3      1 UNK          0.0000
   65 H        93.8060   78.9024   72.6463 H        1 UNK          0.0000
   66 C        94.7899   73.2726   72.6263 C.ar     1 UNK          0.0000
   67 C        94.1306   73.4174   75.4079 C.ar     1 UNK          0.0000
   68 C        95.1896   72.2357   73.5622 C.ar     1 UNK          0.0000
   69 C        87.6990   86.4552   79.0852 C.ar     1 UNK          0.0000
   70 C        92.5141   79.7034   71.1415 C.3      1 UNK          0.0000
   71 H        92.0526   79.3883   70.1976 H        1 UNK          0.0000
   72 H        93.2518   80.4807   70.9001 H        1 UNK          0.0000
   73 C        93.2417   75.7223   75.0636 C.ar     1 UNK          0.0000
   74 H        93.0656   76.6053   74.4524 H        1 UNK          0.0000
   75 C        93.7676   73.5078   76.7984 C.ar     1 UNK          0.0000
   76 H        94.0057   72.6827   77.4697 H        1 UNK          0.0000
   77 C        92.8521   75.8080   76.4483 C.ar     1 UNK          0.0000
   78 C        93.1337   74.6676   77.2853 C.ar     1 UNK          0.0000
   79 C        88.8542   87.3022   77.2352 C.ar     1 UNK          0.0000
   80 H        89.3312   88.1644   76.7885 H        1 UNK          0.0000
   81 C        96.0587   71.1615   73.0584 C.2      1 UNK          0.0000
   82 C        95.8531   72.0089   70.7884 C.2      1 UNK          0.0000
   83 C        92.1640   77.0756   76.9538 C.3      1 UNK          0.0000
   84 H        92.8171   77.6527   77.6177 H        1 UNK          0.0000
   85 H        91.8744   77.7303   76.1188 H        1 UNK          0.0000
   86 H        91.2498   76.8742   77.5289 H        1 UNK          0.0000
   87 C        92.7896   74.7293   78.7565 C.3      1 UNK          0.0000
   88 H        93.1502   73.8450   79.2924 H        1 UNK          0.0000
   89 H        91.7194   74.8219   78.9055 H        1 UNK          0.0000
   90 H        93.2422   75.6180   79.1977 H        1 UNK          0.0000
@<TRIPOS>BOND
     1     1     8   1 
     2     1    11   1 
     3     1    17   1 
     4     1    19   1 
     5     2    11   1 
     6     2    14   1 
     7     2    21   1 
     8     2    24   1 
     9     3    45   1 
    10     3    47   1 
    11     4     5   1 
    12     4    41   1 
    13     6     7   1 
    14     6    43   1 
    15     8    49   1 
    16     9    10   1 
    17     9    56   1 
    18    12    13   1 
    19    12    61   1 
    20    14    70   1 
    21    15    16   1 
    22    15    64   1 
    23    17    18   1 
    24    19    20   1 
    25    21    22   1 
    26    23    81   2 
    27    24    25   1 
    28    26    82   2 
    29    27    45   1 
    30    27    52   1 
    31    27    53   1 
    32    28    58   1 
    33    28    63   ar
    34    28    66   ar
    35    29    53   2 
    36    29    55   1 
    37    30    52   ar
    38    30    79   ar
    39    31    32   1 
    40    31    67   ar
    41    31    68   ar
    42    33    34   1 
    43    33    66   1 
    44    33    82   am
    45    35    69   ar
    46    35    79   ar
    47    36    37   1 
    48    36    81   am
    49    36    82   am
    50    38    39   1 
    51    38    40   1 
    52    38    69   1 
    53    41    42   1 
    54    41    43   1 
    55    41    45   1 
    56    43    44   1 
    57    43    47   1 
    58    45    46   1 
    59    47    48   1 
    60    47    49   1 
    61    49    50   1 
    62    49    51   1 
    63    52    55   ar
    64    53    54   1 
    65    55    69   ar
    66    56    57   1 
    67    56    58   1 
    68    56    61   1 
    69    58    59   1 
    70    58    60   1 
    71    61    62   1 
    72    61    64   1 
    73    63    67   ar
    74    63    73   ar
    75    64    65   1 
    76    64    70   1 
    77    66    68   ar
    78    67    75   ar
    79    68    81   1 
    80    70    71   1 
    81    70    72   1 
    82    73    74   1 
    83    73    77   ar
    84    75    76   1 
    85    75    78   ar
    86    77    78   ar
    87    77    83   1 
    88    78    87   1 
    89    79    80   1 
    90    83    84   1 
    91    83    85   1 
    92    83    86   1 
    93    87    88   1 
    94    87    89   1 
    95    87    90   1 
 
