@<TRIPOS>COMMENT
   inp11.mol2             10    of   10
                  SCORE =  -247.4956
               dG-SCORE =    -6.4008
      LIGAND_EFFICIENCY =    -0.4670
  NUMBER_OF_HEAVY_ATOMS =         53
                    ASA =   -77.1107
                    ELE =     0.0000
                    HYD =  -170.3849
                    VDW =     0.0000
                   RMSD =    30.7426
 MOLECULAR_WEIGHT = 789.59
@<TRIPOS>MOLECULE
inp11.mol2                                                                      
   90   95    0    0    0
SMALL       
GASTEIGER      
 
@<TRIPOS>ATOM
    1 P        92.0177   75.9510   71.1004 P.3      1 UNK          0.0000
    2 P        90.5904   78.0874   72.4629 P.3      1 UNK          0.0000
    3 O        93.2859   75.3737   73.9963 O.3      1 UNK          0.0000
    4 O        92.0488   77.7230   76.0155 O.3      1 UNK          0.0000
    5 H        91.9684   77.9005   76.9701 H        1 UNK          0.0000
    6 O        94.0013   78.8705   74.4665 O.3      1 UNK          0.0000
    7 H        94.7930   79.2259   74.9123 H        1 UNK          0.0000
    8 O        93.6181   76.1564   71.0655 O.3      1 UNK          0.0000
    9 O        87.1043   81.3536   71.4350 O.3      1 UNK          0.0000
   10 H        86.6527   80.5021   71.2480 H        1 UNK          0.0000
   11 O        91.2323   77.3614   71.1703 O.3      1 UNK          0.0000
   12 O        87.4619   79.7340   68.8905 O.3      1 UNK          0.0000
   13 H        86.8130   79.4460   69.5620 H        1 UNK          0.0000
   14 O        90.8405   79.6851   72.4117 O.3      1 UNK          0.0000
   15 O        88.3665   78.9717   71.4245 O.3      1 UNK          0.0000
   16 H        87.5907   79.5555   71.5446 H        1 UNK          0.0000
   17 O        91.6063   75.2311   69.7229 O.3      1 UNK          0.0000
   18 H        91.9077   75.7924   68.9872 H        1 UNK          0.0000
   19 O        91.6134   74.9593   72.3012 O.3      1 UNK          0.0000
   20 H        90.6709   74.7368   72.2145 H        1 UNK          0.0000
   21 O        89.0153   77.7928   72.6050 O.3      1 UNK          0.0000
   22 H        88.8737   76.8309   72.5962 H        1 UNK          0.0000
   23 O        85.4385   87.8732   71.9690 O.2      1 UNK          0.0000
   24 O        91.3294   77.5171   73.7657 O.3      1 UNK          0.0000
   25 H        92.2825   77.7088   73.6917 H        1 UNK          0.0000
   26 O        86.1062   86.1120   67.8963 O.2      1 UNK          0.0000
   27 N        93.3778   74.4207   76.1652 N.ar     1 UNK          0.0000
   28 N        88.1762   83.9390   71.4888 N.ar     1 UNK          0.0000
   29 N        93.5152   72.5459   77.4719 N.ar     1 UNK          0.0000
   30 N        95.8162   74.7105   75.8625 N.ar     1 UNK          0.0000
   31 N        87.0220   85.9063   73.2144 N.ar     1 UNK          0.0000
   32 H        86.6306   86.6362   73.8071 H        1 UNK          0.0000
   33 N        87.0962   85.0719   69.6099 N.am     1 UNK          0.0000
   34 H        87.4800   84.4018   68.9576 H        1 UNK          0.0000
   35 N        97.1231   73.0129   76.9972 N.ar     1 UNK          0.0000
   36 N        85.7311   87.0441   69.9015 N.am     1 UNK          0.0000
   37 H        85.1556   87.7669   69.4884 H        1 UNK          0.0000
   38 N        96.0816   71.3087   78.2327 N.pl3    1 UNK          0.0000
   39 H        96.9832   71.0886   78.6294 H        1 UNK          0.0000
   40 H        95.2539   71.0190   78.7346 H        1 UNK          0.0000
   41 C        93.2281   76.9314   75.8176 C.3      1 UNK          0.0000
   42 H        93.8416   76.8991   76.7272 H        1 UNK          0.0000
   43 C        94.0493   77.4501   74.6226 C.3      1 UNK          0.0000
   44 H        95.0910   77.1259   74.7449 H        1 UNK          0.0000
   45 C        92.8085   75.5052   75.3569 C.3      1 UNK          0.0000
   46 H        91.7156   75.4057   75.3790 H        1 UNK          0.0000
   47 C        93.4367   76.6910   73.4421 C.3      1 UNK          0.0000
   48 H        92.4577   77.1192   73.1891 H        1 UNK          0.0000
   49 C        94.3552   76.6655   72.1953 C.3      1 UNK          0.0000
   50 H        94.6850   77.6894   71.9780 H        1 UNK          0.0000
   51 H        95.2455   76.0572   72.3984 H        1 UNK          0.0000
   52 C        94.7003   74.1123   76.3269 C.ar     1 UNK          0.0000
   53 C        92.6930   73.4302   76.8866 C.ar     1 UNK          0.0000
   54 H        91.6109   73.4053   76.9340 H        1 UNK          0.0000
   55 C        94.7415   72.9907   77.1103 C.ar     1 UNK          0.0000
   56 C        87.7572   81.7501   70.2258 C.3      1 UNK          0.0000
   57 H        87.0013   82.1328   69.5262 H        1 UNK          0.0000
   58 C        88.7475   82.9069   70.5528 C.3      1 UNK          0.0000
   59 H        89.0476   83.3878   69.6107 H        1 UNK          0.0000
   60 H        89.6778   82.4904   70.9580 H        1 UNK          0.0000
   61 C        88.4561   80.5313   69.5392 C.3      1 UNK          0.0000
   62 H        89.1581   80.9144   68.7850 H        1 UNK          0.0000
   63 C        88.3031   83.8388   72.9067 C.ar     1 UNK          0.0000
   64 C        89.2638   79.6536   70.5488 C.3      1 UNK          0.0000
   65 H        89.8346   78.9067   69.9820 H        1 UNK          0.0000
   66 C        87.3629   84.9739   70.9712 C.ar     1 UNK          0.0000
   67 C        87.7349   84.8330   73.7509 C.ar     1 UNK          0.0000
   68 C        86.7992   85.9396   71.8381 C.ar     1 UNK          0.0000
   69 C        95.9887   72.4330   77.4495 C.ar     1 UNK          0.0000
   70 C        90.2873   80.4974   71.3617 C.3      1 UNK          0.0000
   71 H        89.8024   81.3891   71.7771 H        1 UNK          0.0000
   72 H        91.0965   80.8319   70.7005 H        1 UNK          0.0000
   73 C        88.9979   82.7642   73.5168 C.ar     1 UNK          0.0000
   74 H        89.4362   81.9658   72.9275 H        1 UNK          0.0000
   75 C        87.8618   84.7476   75.1489 C.ar     1 UNK          0.0000
   76 H        87.4111   85.5051   75.7860 H        1 UNK          0.0000
   77 C        89.1238   82.6804   74.9164 C.ar     1 UNK          0.0000
   78 C        88.5531   83.6768   75.7377 C.ar     1 UNK          0.0000
   79 C        96.9784   74.1204   76.2279 C.ar     1 UNK          0.0000
   80 H        97.8946   74.5838   75.8660 H        1 UNK          0.0000
   81 C        85.9432   87.0228   71.2633 C.2      1 UNK          0.0000
   82 C        86.3010   86.0812   69.0909 C.2      1 UNK          0.0000
   83 C        89.8831   81.5015   75.5279 C.3      1 UNK          0.0000
   84 H        90.7387   81.8474   76.1216 H        1 UNK          0.0000
   85 H        89.2327   80.9121   76.1867 H        1 UNK          0.0000
   86 H        90.2653   80.8155   74.7618 H        1 UNK          0.0000
   87 C        88.6745   83.6109   77.2605 C.3      1 UNK          0.0000
   88 H        88.1710   84.4625   77.7365 H        1 UNK          0.0000
   89 H        89.7257   83.6228   77.5759 H        1 UNK          0.0000
   90 H        88.2222   82.6983   77.6691 H        1 UNK          0.0000
@<TRIPOS>BOND
     1     1     8   1 
     2     1    11   1 
     3     1    17   1 
     4     1    19   1 
     5     2    11   1 
     6     2    14   1 
     7     2    21   1 
     8     2    24   1 
     9     3    45   1 
    10     3    47   1 
    11     4     5   1 
    12     4    41   1 
    13     6     7   1 
    14     6    43   1 
    15     8    49   1 
    16     9    10   1 
    17     9    56   1 
    18    12    13   1 
    19    12    61   1 
    20    14    70   1 
    21    15    16   1 
    22    15    64   1 
    23    17    18   1 
    24    19    20   1 
    25    21    22   1 
    26    23    81   2 
    27    24    25   1 
    28    26    82   2 
    29    27    45   1 
    30    27    52   1 
    31    27    53   1 
    32    28    58   1 
    33    28    63   ar
    34    28    66   ar
    35    29    53   2 
    36    29    55   1 
    37    30    52   ar
    38    30    79   ar
    39    31    32   1 
    40    31    67   ar
    41    31    68   ar
    42    33    34   1 
    43    33    66   1 
    44    33    82   am
    45    35    69   ar
    46    35    79   ar
    47    36    37   1 
    48    36    81   am
    49    36    82   am
    50    38    39   1 
    51    38    40   1 
    52    38    69   1 
    53    41    42   1 
    54    41    43   1 
    55    41    45   1 
    56    43    44   1 
    57    43    47   1 
    58    45    46   1 
    59    47    48   1 
    60    47    49   1 
    61    49    50   1 
    62    49    51   1 
    63    52    55   ar
    64    53    54   1 
    65    55    69   ar
    66    56    57   1 
    67    56    58   1 
    68    56    61   1 
    69    58    59   1 
    70    58    60   1 
    71    61    62   1 
    72    61    64   1 
    73    63    67   ar
    74    63    73   ar
    75    64    65   1 
    76    64    70   1 
    77    66    68   ar
    78    67    75   ar
    79    68    81   1 
    80    70    71   1 
    81    70    72   1 
    82    73    74   1 
    83    73    77   ar
    84    75    76   1 
    85    75    78   ar
    86    77    78   ar
    87    77    83   1 
    88    78    87   1 
    89    79    80   1 
    90    83    84   1 
    91    83    85   1 
    92    83    86   1 
    93    87    88   1 
    94    87    89   1 
    95    87    90   1 
 
