inp11.mol2
     Hgene          

 48 52  0  0  0  0               V2000
   86.8557   80.5161   71.8567 N   0  0  0  0  0
   86.5649   81.7701   71.3864 C   0  0  0  0  0
   85.7642   81.8138   70.4574 O   0  0  0  0  0
   87.1864   82.9981   71.9960 C   0  0  0  0  0
   87.0356   84.3004   71.4582 C   0  0  0  0  0
   87.6803   85.4318   72.0180 C   0  0  0  0  0
   88.4650   85.2585   73.2337 C   0  0  0  0  0
   88.5838   83.9818   73.8214 N   0  0  0  0  0
   88.0048   82.8503   73.2085 C   0  0  0  0  0
   89.3578   83.8415   75.1162 C   0  0  0  0  0
   89.2636   82.5304   75.7097 O   0  0  0  0  0
   89.9124   82.5993   77.0103 C   0  0  0  0  0
   91.4341   82.1993   77.0168 C   0  0  0  0  0
   92.2054   82.9504   76.0511 O   0  0  0  0  0
   92.5758   82.4253   74.5548 P   0  0  2  0  0
   92.5840   83.7038   73.5794 O   0  0  0  0  0
   91.4931   81.3804   73.9739 O   0  0  0  0  0
   94.0513   81.7779   74.5465 O   0  0  0  0  0
   94.4598   80.2330   74.7385 P   0  0  1  0  0
   94.3945   79.4826   73.3171 O   0  0  0  0  0
   95.9676   80.1953   75.3054 O   0  0  0  0  0
   93.4507   79.5401   75.8118 O   0  0  0  0  0
   93.8355   78.4351   76.6625 C   0  0  0  0  0
   94.2894   77.2071   75.8297 C   0  0  0  0  0
   93.1285   76.5084   75.3432 O   0  0  0  0  0
   93.5791   75.2090   74.8853 C   0  0  0  0  0
   94.6744   74.8154   75.9249 C   0  0  0  0  0
   94.2082   73.8992   76.9449 O   0  0  0  0  0
   92.7451   74.0059   77.6190 P   0  0  2  0  0
   92.2196   75.5007   77.8826 O   0  0  0  0  0
   92.7685   73.2708   78.9948 O   0  0  0  0  0
   91.8026   73.2185   76.6161 O   0  0  0  0  0
   94.9522   76.1219   76.6737 C   0  0  0  0  0
   96.3446   76.3006   76.9277 O   0  0  0  0  0
   93.9689   75.2333   73.4726 N   0  0  0  0  0
   93.7891   76.2495   72.5134 C   0  0  0  0  0
   94.2709   75.9280   71.3083 N   0  0  0  0  0
   94.7205   74.6583   71.4938 C   0  0  0  0  0
   94.5429   74.1993   72.8009 C   0  0  0  0  0
   94.9077   72.9206   73.2128 N   0  0  0  0  0
   95.3645   72.0903   72.2071 C   0  0  0  0  0
   95.6522   72.4636   70.9052 N   0  0  0  0  0
   95.3374   73.7674   70.5434 C   0  0  0  0  0
   95.6443   74.1823   69.2715 N   0  0  0  0  0
   89.6279   84.0607   77.4048 C   0  0  0  0  0
   88.7522   84.0893   78.5074 O   0  0  0  0  0
   88.8238   84.6664   76.2687 C   0  0  0  0  0
   89.0042   86.0862   76.2113 O   0  0  0  0  0
  1  2  1  0
  2  3  2  0
  2  4  1  0
  4  5  4  0
  4  9  4  0
  5  6  4  0
  6  7  4  0
  7  8  4  0
  8  9  4  0
  8 10  1  0
 10 11  1  0
 10 47  1  0
 11 12  1  0
 12 13  1  0
 12 45  1  0
 13 14  1  0
 14 15  1  0
 15 16  1  0
 15 17  1  0
 15 18  1  0
 18 19  1  0
 19 20  1  0
 19 21  1  0
 19 22  1  0
 22 23  1  0
 23 24  1  0
 24 25  1  0
 24 33  1  0
 25 26  1  0
 26 27  1  0
 26 35  1  0
 27 28  1  0
 27 33  1  0
 28 29  1  0
 29 30  1  0
 29 31  1  0
 29 32  1  0
 33 34  1  0
 35 36  1  0
 35 39  1  0
 36 37  2  0
 37 38  1  0
 38 39  4  0
 38 43  4  0
 39 40  4  0
 40 41  4  0
 41 42  4  0
 42 43  4  0
 43 44  1  0
 45 46  1  0
 45 47  1  0
 47 48  1  0
M  END
$$$$
