@<TRIPOS>COMMENT
   inp11.mol2              2    of   10
                  SCORE =  -369.7880
               dG-SCORE =    -7.5746
      LIGAND_EFFICIENCY =    -0.7704
  NUMBER_OF_HEAVY_ATOMS =         48
                    ASA =  -309.4357
                    ELE =     0.0000
                    HYD =   -44.8749
                    VDW =   -15.4773
                   RMSD =    29.6344
 MOLECULAR_WEIGHT = 747.44
@<TRIPOS>MOLECULE
inp11.mol2                                                                      
   80   84    0    0    0
SMALL       
GASTEIGER      
 
@<TRIPOS>ATOM
    1 N        86.8557   80.5161   71.8567 N.am     1 UNK          0.0000
    2 H        87.5338   80.3626   72.5945 H        1 UNK          0.0000
    3 H        86.3552   79.7294   71.4928 H        1 UNK          0.0000
    4 C        86.5649   81.7701   71.3864 C.2      1 UNK          0.0000
    5 O        85.7642   81.8138   70.4574 O.2      1 UNK          0.0000
    6 C        87.1864   82.9981   71.9960 C.ar     1 UNK          0.0000
    7 C        87.0356   84.3004   71.4582 C.ar     1 UNK          0.0000
    8 H        86.4253   84.4488   70.5502 H        1 UNK          0.0000
    9 C        87.6803   85.4318   72.0180 C.ar     1 UNK          0.0000
   10 H        87.6219   86.4028   71.5605 H        1 UNK          0.0000
   11 C        88.4650   85.2585   73.2337 C.ar     1 UNK          0.0000
   12 H        88.9684   86.1119   73.6779 H        1 UNK          0.0000
   13 N        88.5838   83.9818   73.8214 N.ar     1 UNK          0.0000
   14 C        88.0048   82.8503   73.2085 C.ar     1 UNK          0.0000
   15 H        88.1634   81.8781   73.6460 H        1 UNK          0.0000
   16 C        89.3578   83.8415   75.1162 C.3      1 UNK          0.0000
   17 H        90.4011   84.1028   74.9138 H        1 UNK          0.0000
   18 O        89.2636   82.5304   75.7097 O.3      1 UNK          0.0000
   19 C        89.9124   82.5993   77.0103 C.3      1 UNK          0.0000
   20 H        89.3902   81.9652   77.7317 H        1 UNK          0.0000
   21 C        91.4341   82.1993   77.0168 C.3      1 UNK          0.0000
   22 H        91.8379   82.3712   78.0233 H        1 UNK          0.0000
   23 H        91.5577   81.1296   76.8142 H        1 UNK          0.0000
   24 O        92.2054   82.9504   76.0511 O.3      1 UNK          0.0000
   25 P        92.5758   82.4253   74.5548 P.3      1 UNK          0.0000
   26 O        92.5840   83.7038   73.5794 O.3      1 UNK          0.0000
   27 H        92.8523   83.4159   72.6885 H        1 UNK          0.0000
   28 O        91.4931   81.3804   73.9739 O.3      1 UNK          0.0000
   29 H        91.5470   80.5538   74.4909 H        1 UNK          0.0000
   30 O        94.0513   81.7779   74.5465 O.3      1 UNK          0.0000
   31 P        94.4598   80.2330   74.7385 P.3      1 UNK          0.0000
   32 O        94.3945   79.4826   73.3171 O.3      1 UNK          0.0000
   33 H        94.9982   79.9198   72.6897 H        1 UNK          0.0000
   34 O        95.9676   80.1953   75.3054 O.3      1 UNK          0.0000
   35 H        96.5719   80.6192   74.6732 H        1 UNK          0.0000
   36 O        93.4507   79.5401   75.8118 O.3      1 UNK          0.0000
   37 C        93.8355   78.4351   76.6625 C.3      1 UNK          0.0000
   38 H        94.6616   78.7535   77.3104 H        1 UNK          0.0000
   39 H        92.9945   78.1498   77.3095 H        1 UNK          0.0000
   40 C        94.2894   77.2071   75.8297 C.3      1 UNK          0.0000
   41 H        94.9597   77.4802   75.0061 H        1 UNK          0.0000
   42 O        93.1285   76.5084   75.3432 O.3      1 UNK          0.0000
   43 C        93.5791   75.2090   74.8853 C.3      1 UNK          0.0000
   44 H        92.7880   74.4701   74.9138 H        1 UNK          0.0000
   45 C        94.6744   74.8154   75.9249 C.3      1 UNK          0.0000
   46 H        95.5704   74.4263   75.4303 H        1 UNK          0.0000
   47 O        94.2082   73.8992   76.9449 O.3      1 UNK          0.0000
   48 P        92.7451   74.0059   77.6190 P.3      1 UNK          0.0000
   49 O        92.2196   75.5007   77.8826 O.3      1 UNK          0.0000
   50 H        92.1378   75.9462   77.0210 H        1 UNK          0.0000
   51 O        92.7685   73.2708   78.9948 O.3      1 UNK          0.0000
   52 H        92.8679   72.3250   78.7939 H        1 UNK          0.0000
   53 O        91.8026   73.2185   76.6161 O.3      1 UNK          0.0000
   54 H        90.9254   73.1466   76.9982 H        1 UNK          0.0000
   55 C        94.9522   76.1219   76.6737 C.3      1 UNK          0.0000
   56 H        94.3833   76.0722   77.6067 H        1 UNK          0.0000
   57 O        96.3446   76.3006   76.9277 O.3      1 UNK          0.0000
   58 H        96.6542   75.4827   77.3578 H        1 UNK          0.0000
   59 N        93.9689   75.2333   73.4726 N.ar     1 UNK          0.0000
   60 C        93.7891   76.2495   72.5134 C.ar     1 UNK          0.0000
   61 H        93.3115   77.1879   72.7647 H        1 UNK          0.0000
   62 N        94.2709   75.9280   71.3083 N.ar     1 UNK          0.0000
   63 C        94.7205   74.6583   71.4938 C.ar     1 UNK          0.0000
   64 C        94.5429   74.1993   72.8009 C.ar     1 UNK          0.0000
   65 N        94.9077   72.9206   73.2128 N.ar     1 UNK          0.0000
   66 C        95.3645   72.0903   72.2071 C.ar     1 UNK          0.0000
   67 H        95.4912   71.0476   72.4441 H        1 UNK          0.0000
   68 N        95.6522   72.4636   70.9052 N.ar     1 UNK          0.0000
   69 C        95.3374   73.7674   70.5434 C.ar     1 UNK          0.0000
   70 N        95.6443   74.1823   69.2715 N.pl3    1 UNK          0.0000
   71 H        95.4270   75.1300   68.9948 H        1 UNK          0.0000
   72 H        96.0921   73.5478   68.6299 H        1 UNK          0.0000
   73 C        89.6279   84.0607   77.4048 C.3      1 UNK          0.0000
   74 H        90.5594   84.6183   77.5666 H        1 UNK          0.0000
   75 O        88.7522   84.0893   78.5074 O.3      1 UNK          0.0000
   76 H        89.2023   83.6495   79.2305 H        1 UNK          0.0000
   77 C        88.8238   84.6664   76.2687 C.3      1 UNK          0.0000
   78 H        87.7694   84.4028   76.4081 H        1 UNK          0.0000
   79 O        89.0042   86.0862   76.2113 O.3      1 UNK          0.0000
   80 H        88.8376   86.4381   77.1073 H        1 UNK          0.0000
@<TRIPOS>BOND
     1     1     2   1 
     2     1     3   1 
     3     1     4   am
     4     4     5   2 
     5     4     6   1 
     6     6     7   ar
     7     6    14   ar
     8     7     8   1 
     9     7     9   ar
    10     9    10   1 
    11     9    11   ar
    12    11    12   1 
    13    11    13   ar
    14    13    14   ar
    15    13    16   1 
    16    14    15   1 
    17    16    17   1 
    18    16    18   1 
    19    16    77   1 
    20    18    19   1 
    21    19    20   1 
    22    19    21   1 
    23    19    73   1 
    24    21    22   1 
    25    21    23   1 
    26    21    24   1 
    27    24    25   1 
    28    25    26   1 
    29    25    28   1 
    30    25    30   1 
    31    26    27   1 
    32    28    29   1 
    33    30    31   1 
    34    31    32   1 
    35    31    34   1 
    36    31    36   1 
    37    32    33   1 
    38    34    35   1 
    39    36    37   1 
    40    37    38   1 
    41    37    39   1 
    42    37    40   1 
    43    40    41   1 
    44    40    42   1 
    45    40    55   1 
    46    42    43   1 
    47    43    44   1 
    48    43    45   1 
    49    43    59   1 
    50    45    46   1 
    51    45    47   1 
    52    45    55   1 
    53    47    48   1 
    54    48    49   1 
    55    48    51   1 
    56    48    53   1 
    57    49    50   1 
    58    51    52   1 
    59    53    54   1 
    60    55    56   1 
    61    55    57   1 
    62    57    58   1 
    63    59    60   1 
    64    59    64   1 
    65    60    61   1 
    66    60    62   2 
    67    62    63   1 
    68    63    64   ar
    69    63    69   ar
    70    64    65   ar
    71    65    66   ar
    72    66    67   1 
    73    66    68   ar
    74    68    69   ar
    75    69    70   1 
    76    70    71   1 
    77    70    72   1 
    78    73    74   1 
    79    73    75   1 
    80    73    77   1 
    81    75    76   1 
    82    77    78   1 
    83    77    79   1 
    84    79    80   1 
 
