@<TRIPOS>COMMENT
   inp11.mol2              3    of   10
                  SCORE =  -306.1085
               dG-SCORE =    -6.0109
      LIGAND_EFFICIENCY =    -0.6377
  NUMBER_OF_HEAVY_ATOMS =         48
                    ASA =  -242.3380
                    ELE =     0.0000
                    HYD =   -49.2556
                    VDW =   -14.5148
                   RMSD =    30.8355
 MOLECULAR_WEIGHT = 747.44
@<TRIPOS>MOLECULE
inp11.mol2                                                                      
   80   84    0    0    0
SMALL       
GASTEIGER      
 
@<TRIPOS>ATOM
    1 N        96.4967   77.2339   69.8984 N.am     1 UNK          0.0000
    2 H        96.5190   77.5703   70.8451 H        1 UNK          0.0000
    3 H        96.5705   77.9001   69.1328 H        1 UNK          0.0000
    4 C        96.3650   75.8925   69.5909 C.2      1 UNK          0.0000
    5 O        96.3448   75.5991   68.4224 O.2      1 UNK          0.0000
    6 C        96.2433   74.8400   70.7141 C.ar     1 UNK          0.0000
    7 C        96.0708   73.4474   70.4000 C.ar     1 UNK          0.0000
    8 H        96.0492   73.0885   69.3925 H        1 UNK          0.0000
    9 C        95.9157   72.5060   71.4936 C.ar     1 UNK          0.0000
   10 H        95.7823   71.4531   71.2527 H        1 UNK          0.0000
   11 C        95.9377   72.9659   72.8191 C.ar     1 UNK          0.0000
   12 H        95.7944   72.2785   73.6710 H        1 UNK          0.0000
   13 N        96.1577   74.3452   73.1583 N.ar     1 UNK          0.0000
   14 C        96.3015   75.2667   72.0449 C.ar     1 UNK          0.0000
   15 H        96.4604   76.3130   72.3157 H        1 UNK          0.0000
   16 C        96.2427   74.8074   74.5376 C.3      1 UNK          0.0000
   17 H        95.3298   74.4856   75.0659 H        1 UNK          0.0000
   18 O        96.4747   76.2273   74.7171 O.3      1 UNK          0.0000
   19 C        96.7267   76.5011   76.1190 C.3      1 UNK          0.0000
   20 H        97.3933   77.3646   76.2302 H        1 UNK          0.0000
   21 C        95.4234   76.7835   76.9221 C.3      1 UNK          0.0000
   22 H        95.6870   76.9461   77.9622 H        1 UNK          0.0000
   23 H        94.9268   77.6942   76.5661 H        1 UNK          0.0000
   24 O        94.5447   75.6550   76.8094 O.3      1 UNK          0.0000
   25 P        93.3587   75.6732   75.7286 P.3      1 UNK          0.0000
   26 O        93.1353   74.1777   75.1895 O.3      1 UNK          0.0000
   27 H        92.4225   74.1973   74.5276 H        1 UNK          0.0000
   28 O        93.5998   76.6242   74.4474 O.3      1 UNK          0.0000
   29 H        93.5335   77.5553   74.7332 H        1 UNK          0.0000
   30 O        92.1360   76.2090   76.5798 O.3      1 UNK          0.0000
   31 P        91.6403   77.7135   76.7198 P.3      1 UNK          0.0000
   32 O        90.7985   78.1883   75.4165 O.3      1 UNK          0.0000
   33 H        89.9878   77.6642   75.2869 H        1 UNK          0.0000
   34 O        90.8568   77.5659   78.1163 O.3      1 UNK          0.0000
   35 H        90.0366   77.0575   77.9817 H        1 UNK          0.0000
   36 O        92.8444   78.7757   76.8878 O.3      1 UNK          0.0000
   37 C        92.6657   80.0911   77.4747 C.3      1 UNK          0.0000
   38 H        92.2924   79.9516   78.4976 H        1 UNK          0.0000
   39 H        93.6425   80.5759   77.5478 H        1 UNK          0.0000
   40 C        91.6990   81.0637   76.7272 C.3      1 UNK          0.0000
   41 H        90.7526   80.5882   76.4634 H        1 UNK          0.0000
   42 O        92.2330   81.6587   75.5296 O.3      1 UNK          0.0000
   43 C        91.3246   82.7398   75.1701 C.3      1 UNK          0.0000
   44 H        91.8397   83.4449   74.5068 H        1 UNK          0.0000
   45 C        91.0145   83.4004   76.5621 C.3      1 UNK          0.0000
   46 H        89.9433   83.6329   76.6281 H        1 UNK          0.0000
   47 O        91.7837   84.6101   76.8810 O.3      1 UNK          0.0000
   48 P        93.3585   84.9150   76.5768 P.3      1 UNK          0.0000
   49 O        94.2445   83.5835   76.7518 O.3      1 UNK          0.0000
   50 H        93.9196   82.9101   76.1234 H        1 UNK          0.0000
   51 O        93.9028   86.0447   77.5818 O.3      1 UNK          0.0000
   52 H        93.4428   86.8797   77.4029 H        1 UNK          0.0000
   53 O        93.5026   85.4343   75.0604 O.3      1 UNK          0.0000
   54 H        94.4442   85.5341   74.8354 H        1 UNK          0.0000
   55 C        91.3519   82.2886   77.5754 C.3      1 UNK          0.0000
   56 H        92.2231   82.5754   78.1758 H        1 UNK          0.0000
   57 O        90.2362   82.0084   78.4019 O.3      1 UNK          0.0000
   58 H        89.9972   82.8478   78.8268 H        1 UNK          0.0000
   59 N        90.1322   82.2885   74.3877 N.ar     1 UNK          0.0000
   60 C        89.8502   81.0459   73.7759 C.ar     1 UNK          0.0000
   61 H        90.5324   80.2128   73.8698 H        1 UNK          0.0000
   62 N        88.6981   81.0219   73.0769 N.ar     1 UNK          0.0000
   63 C        88.2751   82.3080   73.1595 C.ar     1 UNK          0.0000
   64 C        89.0505   83.0580   74.0560 C.ar     1 UNK          0.0000
   65 N        88.7413   84.3581   74.3970 N.ar     1 UNK          0.0000
   66 C        87.6758   84.9191   73.7286 C.ar     1 UNK          0.0000
   67 H        87.5019   85.9504   73.9479 H        1 UNK          0.0000
   68 N        86.8546   84.2894   72.8018 N.ar     1 UNK          0.0000
   69 C        87.1662   82.9711   72.4878 C.ar     1 UNK          0.0000
   70 N        86.3782   82.3387   71.5454 N.pl3    1 UNK          0.0000
   71 H        86.5494   81.3697   71.2950 H        1 UNK          0.0000
   72 H        85.6230   82.8485   71.1093 H        1 UNK          0.0000
   73 C        97.4215   75.1991   76.5960 C.3      1 UNK          0.0000
   74 H        96.8059   74.7248   77.3724 H        1 UNK          0.0000
   75 O        98.7460   75.4254   77.0471 O.3      1 UNK          0.0000
   76 H        98.7112   75.9968   77.8332 H        1 UNK          0.0000
   77 C        97.4311   74.3171   75.3400 C.3      1 UNK          0.0000
   78 H        98.3489   74.5042   74.7647 H        1 UNK          0.0000
   79 O        97.2285   72.9460   75.6166 O.3      1 UNK          0.0000
   80 H        97.9845   72.6749   76.1612 H        1 UNK          0.0000
@<TRIPOS>BOND
     1     1     2   1 
     2     1     3   1 
     3     1     4   am
     4     4     5   2 
     5     4     6   1 
     6     6     7   ar
     7     6    14   ar
     8     7     8   1 
     9     7     9   ar
    10     9    10   1 
    11     9    11   ar
    12    11    12   1 
    13    11    13   ar
    14    13    14   ar
    15    13    16   1 
    16    14    15   1 
    17    16    17   1 
    18    16    18   1 
    19    16    77   1 
    20    18    19   1 
    21    19    20   1 
    22    19    21   1 
    23    19    73   1 
    24    21    22   1 
    25    21    23   1 
    26    21    24   1 
    27    24    25   1 
    28    25    26   1 
    29    25    28   1 
    30    25    30   1 
    31    26    27   1 
    32    28    29   1 
    33    30    31   1 
    34    31    32   1 
    35    31    34   1 
    36    31    36   1 
    37    32    33   1 
    38    34    35   1 
    39    36    37   1 
    40    37    38   1 
    41    37    39   1 
    42    37    40   1 
    43    40    41   1 
    44    40    42   1 
    45    40    55   1 
    46    42    43   1 
    47    43    44   1 
    48    43    45   1 
    49    43    59   1 
    50    45    46   1 
    51    45    47   1 
    52    45    55   1 
    53    47    48   1 
    54    48    49   1 
    55    48    51   1 
    56    48    53   1 
    57    49    50   1 
    58    51    52   1 
    59    53    54   1 
    60    55    56   1 
    61    55    57   1 
    62    57    58   1 
    63    59    60   1 
    64    59    64   1 
    65    60    61   1 
    66    60    62   2 
    67    62    63   1 
    68    63    64   ar
    69    63    69   ar
    70    64    65   ar
    71    65    66   ar
    72    66    67   1 
    73    66    68   ar
    74    68    69   ar
    75    69    70   1 
    76    70    71   1 
    77    70    72   1 
    78    73    74   1 
    79    73    75   1 
    80    73    77   1 
    81    75    76   1 
    82    77    78   1 
    83    77    79   1 
    84    79    80   1 
 
