@<TRIPOS>COMMENT
   inp11.mol2              5    of   10
                  SCORE =  -366.7620
               dG-SCORE =    -7.4115
      LIGAND_EFFICIENCY =    -0.7641
  NUMBER_OF_HEAVY_ATOMS =         48
                    ASA =  -310.9424
                    ELE =     0.0000
                    HYD =   -39.9278
                    VDW =   -15.8917
                   RMSD =    29.4939
 MOLECULAR_WEIGHT = 747.44
@<TRIPOS>MOLECULE
inp11.mol2                                                                      
   80   84    0    0    0
SMALL       
GASTEIGER      
 
@<TRIPOS>ATOM
    1 N        86.4307   81.3827   71.5752 N.am     1 UNK          0.0000
    2 H        87.0730   81.1005   72.2966 H        1 UNK          0.0000
    3 H        85.9579   80.6745   71.0366 H        1 UNK          0.0000
    4 C        86.1555   82.6938   71.2617 C.2      1 UNK          0.0000
    5 O        85.3881   82.8565   70.3437 O.2      1 UNK          0.0000
    6 C        86.8201   83.8805   71.9938 C.ar     1 UNK          0.0000
    7 C        86.7402   85.1675   71.3729 C.ar     1 UNK          0.0000
    8 H        86.1826   85.3263   70.4744 H        1 UNK          0.0000
    9 C        87.4918   86.2622   71.9492 C.ar     1 UNK          0.0000
   10 H        87.4993   87.2149   71.4295 H        1 UNK          0.0000
   11 C        88.1999   86.0802   73.1449 C.ar     1 UNK          0.0000
   12 H        88.7622   86.9179   73.6040 H        1 UNK          0.0000
   13 N        88.2534   84.8170   73.8276 N.ar     1 UNK          0.0000
   14 C        87.5477   83.7153   73.1848 C.ar     1 UNK          0.0000
   15 H        87.6573   82.7583   73.6865 H        1 UNK          0.0000
   16 C        89.0136   84.6453   75.0659 C.3      1 UNK          0.0000
   17 H        90.0716   84.8814   74.8685 H        1 UNK          0.0000
   18 O        88.8987   83.3214   75.6670 O.3      1 UNK          0.0000
   19 C        89.5491   83.3387   76.9621 C.3      1 UNK          0.0000
   20 H        89.0329   82.6503   77.6446 H        1 UNK          0.0000
   21 C        91.0695   82.9330   76.9150 C.3      1 UNK          0.0000
   22 H        91.5066   83.0647   77.9089 H        1 UNK          0.0000
   23 H        91.1723   81.8720   76.6700 H        1 UNK          0.0000
   24 O        91.8320   83.7292   75.9753 O.3      1 UNK          0.0000
   25 P        92.2400   83.2445   74.4771 P.3      1 UNK          0.0000
   26 O        92.2491   84.5369   73.5198 O.3      1 UNK          0.0000
   27 H        92.5295   84.2616   72.6283 H        1 UNK          0.0000
   28 O        91.1758   82.1950   73.8750 O.3      1 UNK          0.0000
   29 H        91.2186   81.3762   74.4050 H        1 UNK          0.0000
   30 O        93.7215   82.6113   74.4817 O.3      1 UNK          0.0000
   31 P        94.1346   81.0678   74.6729 P.3      1 UNK          0.0000
   32 O        94.0731   80.3163   73.2521 O.3      1 UNK          0.0000
   33 H        94.6787   80.7529   72.6261 H        1 UNK          0.0000
   34 O        95.6408   81.0338   75.2430 O.3      1 UNK          0.0000
   35 H        96.2471   81.4519   74.6090 H        1 UNK          0.0000
   36 O        93.1223   80.3768   75.7439 O.3      1 UNK          0.0000
   37 C        93.5095   79.2868   76.6133 C.3      1 UNK          0.0000
   38 H        94.3371   79.6142   77.2531 H        1 UNK          0.0000
   39 H        92.6712   79.0095   77.2656 H        1 UNK          0.0000
   40 C        93.9585   78.0419   75.8092 C.3      1 UNK          0.0000
   41 H        94.6314   78.2904   74.9784 H        1 UNK          0.0000
   42 O        92.7979   77.3440   75.3421 O.3      1 UNK          0.0000
   43 C        93.2360   76.0369   74.8947 C.3      1 UNK          0.0000
   44 H        92.4155   75.3208   74.9550 H        1 UNK          0.0000
   45 C        94.3489   75.6570   75.9194 C.3      1 UNK          0.0000
   46 H        95.2474   75.3289   75.3881 H        1 UNK          0.0000
   47 O        93.9751   74.6679   76.9154 O.3      1 UNK          0.0000
   48 P        92.5636   74.6162   77.6927 P.3      1 UNK          0.0000
   49 O        91.9199   76.0823   77.9440 O.3      1 UNK          0.0000
   50 H        91.8373   76.5555   77.0924 H        1 UNK          0.0000
   51 O        92.7468   73.8475   79.0605 O.3      1 UNK          0.0000
   52 H        92.6614   72.9129   78.8258 H        1 UNK          0.0000
   53 O        91.7256   73.5939   76.8152 O.3      1 UNK          0.0000
   54 H        90.7848   73.6516   77.0396 H        1 UNK          0.0000
   55 C        94.5961   76.9664   76.6829 C.3      1 UNK          0.0000
   56 H        94.0131   76.9291   77.6082 H        1 UNK          0.0000
   57 O        95.9821   77.1641   76.9533 O.3      1 UNK          0.0000
   58 H        96.3226   76.3166   77.2923 H        1 UNK          0.0000
   59 N        93.6217   76.0460   73.4620 N.ar     1 UNK          0.0000
   60 C        93.4473   77.0578   72.4931 C.ar     1 UNK          0.0000
   61 H        92.9787   78.0023   72.7379 H        1 UNK          0.0000
   62 N        93.9177   76.7295   71.2820 N.ar     1 UNK          0.0000
   63 C        94.3816   75.4704   71.4705 C.ar     1 UNK          0.0000
   64 C        94.2130   75.0198   72.7837 C.ar     1 UNK          0.0000
   65 N        94.6111   73.7571   73.2004 N.ar     1 UNK          0.0000
   66 C        95.1228   72.9216   72.2181 C.ar     1 UNK          0.0000
   67 H        95.3537   71.8996   72.5025 H        1 UNK          0.0000
   68 N        95.3513   73.2831   70.8958 N.ar     1 UNK          0.0000
   69 C        95.0110   74.5788   70.5210 C.ar     1 UNK          0.0000
   70 N        95.3082   74.9958   69.2425 N.pl3    1 UNK          0.0000
   71 H        95.0828   75.9399   68.9617 H        1 UNK          0.0000
   72 H        95.7604   74.3643   68.5992 H        1 UNK          0.0000
   73 C        89.3235   84.8184   77.4029 C.3      1 UNK          0.0000
   74 H        90.2886   85.3248   77.5487 H        1 UNK          0.0000
   75 O        88.4981   84.9700   78.5267 O.3      1 UNK          0.0000
   76 H        89.0075   84.7497   79.3148 H        1 UNK          0.0000
   77 C        88.5460   85.4736   76.2649 C.3      1 UNK          0.0000
   78 H        87.4849   85.2415   76.3715 H        1 UNK          0.0000
   79 O        88.7586   86.8875   76.2095 O.3      1 UNK          0.0000
   80 H        88.5224   87.2514   77.0860 H        1 UNK          0.0000
@<TRIPOS>BOND
     1     1     2   1 
     2     1     3   1 
     3     1     4   am
     4     4     5   2 
     5     4     6   1 
     6     6     7   ar
     7     6    14   ar
     8     7     8   1 
     9     7     9   ar
    10     9    10   1 
    11     9    11   ar
    12    11    12   1 
    13    11    13   ar
    14    13    14   ar
    15    13    16   1 
    16    14    15   1 
    17    16    17   1 
    18    16    18   1 
    19    16    77   1 
    20    18    19   1 
    21    19    20   1 
    22    19    21   1 
    23    19    73   1 
    24    21    22   1 
    25    21    23   1 
    26    21    24   1 
    27    24    25   1 
    28    25    26   1 
    29    25    28   1 
    30    25    30   1 
    31    26    27   1 
    32    28    29   1 
    33    30    31   1 
    34    31    32   1 
    35    31    34   1 
    36    31    36   1 
    37    32    33   1 
    38    34    35   1 
    39    36    37   1 
    40    37    38   1 
    41    37    39   1 
    42    37    40   1 
    43    40    41   1 
    44    40    42   1 
    45    40    55   1 
    46    42    43   1 
    47    43    44   1 
    48    43    45   1 
    49    43    59   1 
    50    45    46   1 
    51    45    47   1 
    52    45    55   1 
    53    47    48   1 
    54    48    49   1 
    55    48    51   1 
    56    48    53   1 
    57    49    50   1 
    58    51    52   1 
    59    53    54   1 
    60    55    56   1 
    61    55    57   1 
    62    57    58   1 
    63    59    60   1 
    64    59    64   1 
    65    60    61   1 
    66    60    62   2 
    67    62    63   1 
    68    63    64   ar
    69    63    69   ar
    70    64    65   ar
    71    65    66   ar
    72    66    67   1 
    73    66    68   ar
    74    68    69   ar
    75    69    70   1 
    76    70    71   1 
    77    70    72   1 
    78    73    74   1 
    79    73    75   1 
    80    73    77   1 
    81    75    76   1 
    82    77    78   1 
    83    77    79   1 
    84    79    80   1 
 
