inp11.mol2
     Hgene          

 48 52  0  0  0  0               V2000
   86.4307   81.3827   71.5752 N   0  0  0  0  0
   86.1555   82.6938   71.2617 C   0  0  0  0  0
   85.3881   82.8565   70.3437 O   0  0  0  0  0
   86.8201   83.8805   71.9938 C   0  0  0  0  0
   86.7402   85.1675   71.3729 C   0  0  0  0  0
   87.4918   86.2622   71.9492 C   0  0  0  0  0
   88.1999   86.0802   73.1449 C   0  0  0  0  0
   88.2534   84.8170   73.8276 N   0  0  0  0  0
   87.5477   83.7153   73.1848 C   0  0  0  0  0
   89.0136   84.6453   75.0659 C   0  0  0  0  0
   88.8987   83.3214   75.6670 O   0  0  0  0  0
   89.5491   83.3387   76.9621 C   0  0  0  0  0
   91.0695   82.9330   76.9150 C   0  0  0  0  0
   91.8320   83.7292   75.9753 O   0  0  0  0  0
   92.2400   83.2445   74.4771 P   0  0  2  0  0
   92.2491   84.5369   73.5198 O   0  0  0  0  0
   91.1758   82.1950   73.8750 O   0  0  0  0  0
   93.7215   82.6113   74.4817 O   0  0  0  0  0
   94.1346   81.0678   74.6729 P   0  0  1  0  0
   94.0731   80.3163   73.2521 O   0  0  0  0  0
   95.6408   81.0338   75.2430 O   0  0  0  0  0
   93.1223   80.3768   75.7439 O   0  0  0  0  0
   93.5095   79.2868   76.6133 C   0  0  0  0  0
   93.9585   78.0419   75.8092 C   0  0  0  0  0
   92.7979   77.3440   75.3421 O   0  0  0  0  0
   93.2360   76.0369   74.8947 C   0  0  0  0  0
   94.3489   75.6570   75.9194 C   0  0  0  0  0
   93.9751   74.6679   76.9154 O   0  0  0  0  0
   92.5636   74.6162   77.6927 P   0  0  2  0  0
   91.9199   76.0823   77.9440 O   0  0  0  0  0
   92.7468   73.8475   79.0605 O   0  0  0  0  0
   91.7256   73.5939   76.8152 O   0  0  0  0  0
   94.5961   76.9664   76.6829 C   0  0  0  0  0
   95.9821   77.1641   76.9533 O   0  0  0  0  0
   93.6217   76.0460   73.4620 N   0  0  0  0  0
   93.4473   77.0578   72.4931 C   0  0  0  0  0
   93.9177   76.7295   71.2820 N   0  0  0  0  0
   94.3816   75.4704   71.4705 C   0  0  0  0  0
   94.2130   75.0198   72.7837 C   0  0  0  0  0
   94.6111   73.7571   73.2004 N   0  0  0  0  0
   95.1228   72.9216   72.2181 C   0  0  0  0  0
   95.3513   73.2831   70.8958 N   0  0  0  0  0
   95.0110   74.5788   70.5210 C   0  0  0  0  0
   95.3082   74.9958   69.2425 N   0  0  0  0  0
   89.3235   84.8184   77.4029 C   0  0  0  0  0
   88.4981   84.9700   78.5267 O   0  0  0  0  0
   88.5460   85.4736   76.2649 C   0  0  0  0  0
   88.7586   86.8875   76.2095 O   0  0  0  0  0
  1  2  1  0
  2  3  2  0
  2  4  1  0
  4  5  4  0
  4  9  4  0
  5  6  4  0
  6  7  4  0
  7  8  4  0
  8  9  4  0
  8 10  1  0
 10 11  1  0
 10 47  1  0
 11 12  1  0
 12 13  1  0
 12 45  1  0
 13 14  1  0
 14 15  1  0
 15 16  1  0
 15 17  1  0
 15 18  1  0
 18 19  1  0
 19 20  1  0
 19 21  1  0
 19 22  1  0
 22 23  1  0
 23 24  1  0
 24 25  1  0
 24 33  1  0
 25 26  1  0
 26 27  1  0
 26 35  1  0
 27 28  1  0
 27 33  1  0
 28 29  1  0
 29 30  1  0
 29 31  1  0
 29 32  1  0
 33 34  1  0
 35 36  1  0
 35 39  1  0
 36 37  2  0
 37 38  1  0
 38 39  4  0
 38 43  4  0
 39 40  4  0
 40 41  4  0
 41 42  4  0
 42 43  4  0
 43 44  1  0
 45 46  1  0
 45 47  1  0
 47 48  1  0
M  END
$$$$
