inp11.mol2
     Hgene          

 48 52  0  0  0  0               V2000
   91.2493   85.4899   76.0737 N   0  0  0  0  0
   90.0396   85.9597   76.5535 C   0  0  0  0  0
   90.1078   86.6498   77.5661 O   0  0  0  0  0
   88.7496   85.6505   75.8980 C   0  0  0  0  0
   87.5300   86.1619   76.4314 C   0  0  0  0  0
   86.2958   85.7721   75.9120 C   0  0  0  0  0
   86.2086   84.9564   74.7183 C   0  0  0  0  0
   87.3980   84.5254   74.1020 N   0  0  0  0  0
   88.6419   84.8209   74.6882 C   0  0  0  0  0
   87.2283   83.7968   72.7918 C   0  0  0  0  0
   88.5073   83.4147   72.2639 O   0  0  0  0  0
   88.3099   82.9150   70.9227 C   0  0  0  0  0
   88.1828   81.3610   70.8544 C   0  0  0  0  0
   87.1693   80.8553   71.7328 O   0  0  0  0  0
   87.5087   80.2568   73.1899 P   0  0  2  0  0
   86.3106   80.5812   74.1801 O   0  0  0  0  0
   88.8173   80.8662   73.9027 O   0  0  0  0  0
   87.4874   78.6801   73.1332 O   0  0  0  0  0
   88.7869   77.8121   73.0803 P   0  0  1  0  0
   89.1636   77.8768   74.6250 O   0  0  0  0  0
   88.3986   76.3473   72.5266 O   0  0  0  0  0
   89.8655   78.5761   72.1379 O   0  0  0  0  0
   90.8339   77.9275   71.2891 C   0  0  0  0  0
   91.9072   77.1490   72.1032 C   0  0  0  0  0
   92.8321   78.0228   72.7823 O   0  0  0  0  0
   93.9340   77.2061   73.2710 C   0  0  0  0  0
   94.0853   76.1196   72.1497 C   0  0  0  0  0
   95.2321   76.2801   71.2703 O   0  0  0  0  0
   95.7289   77.6762   70.5989 P   0  0  2  0  0
   94.4971   78.6636   70.2815 O   0  0  0  0  0
   96.4959   77.3588   69.2283 O   0  0  0  0  0
   96.7224   78.3798   71.6430 O   0  0  0  0  0
   92.8548   76.2940   71.2592 C   0  0  0  0  0
   92.3567   75.0044   70.9082 O   0  0  0  0  0
   93.7032   76.6923   74.6523 N   0  0  0  0  0
   92.7994   77.1431   75.6390 C   0  0  0  0  0
   92.7789   76.3908   76.7531 N   0  0  0  0  0
   93.7601   75.4865   76.5130 C   0  0  0  0  0
   94.3920   75.6827   75.2780 C   0  0  0  0  0
   95.4802   74.9246   74.8728 N   0  0  0  0  0
   95.9577   74.0011   75.7874 C   0  0  0  0  0
   95.3759   73.6905   77.0103 N   0  0  0  0  0
   94.2355   74.4066   77.3530 C   0  0  0  0  0
   93.5850   74.0662   78.5073 N   0  0  0  0  0
   87.0229   83.6518   70.4416 C   0  0  0  0  0
   87.2225   84.4294   69.2622 O   0  0  0  0  0
   86.6225   84.5599   71.6186 C   0  0  0  0  0
   85.1996   84.7085   71.6727 O   0  0  0  0  0
  1  2  1  0
  2  3  2  0
  2  4  1  0
  4  5  4  0
  4  9  4  0
  5  6  4  0
  6  7  4  0
  7  8  4  0
  8  9  4  0
  8 10  1  0
 10 11  1  0
 10 47  1  0
 11 12  1  0
 12 13  1  0
 12 45  1  0
 13 14  1  0
 14 15  1  0
 15 16  1  0
 15 17  1  0
 15 18  1  0
 18 19  1  0
 19 20  1  0
 19 21  1  0
 19 22  1  0
 22 23  1  0
 23 24  1  0
 24 25  1  0
 24 33  1  0
 25 26  1  0
 26 27  1  0
 26 35  1  0
 27 28  1  0
 27 33  1  0
 28 29  1  0
 29 30  1  0
 29 31  1  0
 29 32  1  0
 33 34  1  0
 35 36  1  0
 35 39  1  0
 36 37  2  0
 37 38  1  0
 38 39  4  0
 38 43  4  0
 39 40  4  0
 40 41  4  0
 41 42  4  0
 42 43  4  0
 43 44  1  0
 45 46  1  0
 45 47  1  0
 47 48  1  0
M  END
$$$$
