@<TRIPOS>COMMENT
   inp11.mol2              9    of   10
                  SCORE =  -300.8544
               dG-SCORE =    -5.6035
      LIGAND_EFFICIENCY =    -0.6268
  NUMBER_OF_HEAVY_ATOMS =         48
                    ASA =  -251.2441
                    ELE =     0.0000
                    HYD =   -33.6321
                    VDW =   -15.9783
                   RMSD =    28.5525
 MOLECULAR_WEIGHT = 747.44
@<TRIPOS>MOLECULE
inp11.mol2                                                                      
   80   84    0    0    0
SMALL       
GASTEIGER      
 
@<TRIPOS>ATOM
    1 N        96.3889   81.0593   80.4591 N.am     1 UNK          0.0000
    2 H        96.3537   81.3481   79.4942 H        1 UNK          0.0000
    3 H        97.0302   80.3553   80.7346 H        1 UNK          0.0000
    4 C        95.5729   81.6714   81.3966 C.2      1 UNK          0.0000
    5 O        95.7625   81.3829   82.5723 O.2      1 UNK          0.0000
    6 C        94.5976   82.7123   81.0035 C.ar     1 UNK          0.0000
    7 C        93.7632   83.4037   81.9415 C.ar     1 UNK          0.0000
    8 H        93.8805   83.1501   83.0014 H        1 UNK          0.0000
    9 C        92.8779   84.4156   81.5601 C.ar     1 UNK          0.0000
   10 H        92.2601   84.9742   82.2728 H        1 UNK          0.0000
   11 C        92.7819   84.7837   80.1743 C.ar     1 UNK          0.0000
   12 H        92.1122   85.5396   79.8289 H        1 UNK          0.0000
   13 N        93.5598   84.0936   79.2331 N.ar     1 UNK          0.0000
   14 C        94.4824   83.1288   79.6250 C.ar     1 UNK          0.0000
   15 H        95.1370   82.6696   78.8847 H        1 UNK          0.0000
   16 C        93.2405   84.4305   77.8291 C.3      1 UNK          0.0000
   17 H        92.1925   84.1532   77.6761 H        1 UNK          0.0000
   18 O        94.1049   83.7135   76.9398 O.3      1 UNK          0.0000
   19 C        93.7734   84.1600   75.6092 C.3      1 UNK          0.0000
   20 H        94.6779   84.1097   74.9903 H        1 UNK          0.0000
   21 C        92.6665   83.2584   74.9579 C.3      1 UNK          0.0000
   22 H        92.4022   83.6845   73.9828 H        1 UNK          0.0000
   23 H        93.0644   82.2515   74.7765 H        1 UNK          0.0000
   24 O        91.4785   83.1819   75.7794 O.3      1 UNK          0.0000
   25 P        91.0863   81.8959   76.6775 P.3      1 UNK          0.0000
   26 O        90.0917   82.4113   77.8323 O.3      1 UNK          0.0000
   27 H        90.0131   81.7100   78.5038 H        1 UNK          0.0000
   28 O        92.3487   81.1923   77.3929 O.3      1 UNK          0.0000
   29 H        92.9035   80.7817   76.6980 H        1 UNK          0.0000
   30 O        90.3451   80.8271   75.7206 O.3      1 UNK          0.0000
   31 P        90.9133   79.5384   74.9154 P.3      1 UNK          0.0000
   32 O        91.3276   78.2567   75.8159 O.3      1 UNK          0.0000
   33 H        90.5343   77.8572   76.2121 H        1 UNK          0.0000
   34 O        89.7823   79.1184   73.8372 O.3      1 UNK          0.0000
   35 H        88.9875   78.7747   74.2782 H        1 UNK          0.0000
   36 O        92.2544   80.0137   74.1743 O.3      1 UNK          0.0000
   37 C        92.6900   79.3634   72.9749 C.3      1 UNK          0.0000
   38 H        91.9242   79.5217   72.2068 H        1 UNK          0.0000
   39 H        93.6246   79.8142   72.6283 H        1 UNK          0.0000
   40 C        92.8886   77.8417   73.1562 C.3      1 UNK          0.0000
   41 H        92.0172   77.3826   73.6256 H        1 UNK          0.0000
   42 O        94.0817   77.5383   73.9065 O.3      1 UNK          0.0000
   43 C        94.4026   76.1421   73.6833 C.3      1 UNK          0.0000
   44 H        95.4839   75.9979   73.7641 H        1 UNK          0.0000
   45 C        93.9347   75.9038   72.2047 C.3      1 UNK          0.0000
   46 H        93.2938   75.0282   72.1489 H        1 UNK          0.0000
   47 O        95.0511   75.7754   71.2764 O.3      1 UNK          0.0000
   48 P        96.4197   76.6649   71.2988 P.3      1 UNK          0.0000
   49 O        96.1389   78.1749   71.7821 O.3      1 UNK          0.0000
   50 H        95.7148   78.1499   72.6600 H        1 UNK          0.0000
   51 O        97.0454   76.7192   69.8251 O.3      1 UNK          0.0000
   52 H        97.2346   75.8170   69.5234 H        1 UNK          0.0000
   53 O        97.4608   75.9719   72.3097 O.3      1 UNK          0.0000
   54 H        98.2723   76.5060   72.3404 H        1 UNK          0.0000
   55 C        93.1525   77.1760   71.8171 C.3      1 UNK          0.0000
   56 H        93.8087   77.8329   71.2387 H        1 UNK          0.0000
   57 O        91.9498   76.9761   71.0843 O.3      1 UNK          0.0000
   58 H        92.1852   76.5613   70.2365 H        1 UNK          0.0000
   59 N        93.8599   75.2700   74.7480 N.ar     1 UNK          0.0000
   60 C        93.2172   75.6489   75.9500 C.ar     1 UNK          0.0000
   61 H        93.0271   76.6866   76.1874 H        1 UNK          0.0000
   62 N        92.8768   74.6202   76.7300 N.ar     1 UNK          0.0000
   63 C        93.3452   73.5627   76.0266 C.ar     1 UNK          0.0000
   64 C        93.9410   73.9043   74.8087 C.ar     1 UNK          0.0000
   65 N        94.4500   72.9464   73.9320 N.ar     1 UNK          0.0000
   66 C        94.1631   71.6286   74.2683 C.ar     1 UNK          0.0000
   67 H        94.1682   70.8956   73.4618 H        1 UNK          0.0000
   68 N        93.7896   71.2021   75.5395 N.ar     1 UNK          0.0000
   69 C        93.2565   72.1788   76.3772 C.ar     1 UNK          0.0000
   70 N        92.5194   71.8439   77.4924 N.pl3    1 UNK          0.0000
   71 H        92.0014   72.5786   77.9529 H        1 UNK          0.0000
   72 H        92.4460   70.8811   77.7940 H        1 UNK          0.0000
   73 C        93.3398   85.6442   75.8402 C.3      1 UNK          0.0000
   74 H        92.2816   85.7508   75.5645 H        1 UNK          0.0000
   75 O        94.1305   86.6129   75.1599 O.3      1 UNK          0.0000
   76 H        93.9602   86.5262   74.2062 H        1 UNK          0.0000
   77 C        93.4594   85.8508   77.3550 C.3      1 UNK          0.0000
   78 H        94.4636   86.1952   77.6354 H        1 UNK          0.0000
   79 O        92.4616   86.7544   77.7788 O.3      1 UNK          0.0000
   80 H        92.6217   87.5799   77.2987 H        1 UNK          0.0000
@<TRIPOS>BOND
     1     1     2   1 
     2     1     3   1 
     3     1     4   am
     4     4     5   2 
     5     4     6   1 
     6     6     7   ar
     7     6    14   ar
     8     7     8   1 
     9     7     9   ar
    10     9    10   1 
    11     9    11   ar
    12    11    12   1 
    13    11    13   ar
    14    13    14   ar
    15    13    16   1 
    16    14    15   1 
    17    16    17   1 
    18    16    18   1 
    19    16    77   1 
    20    18    19   1 
    21    19    20   1 
    22    19    21   1 
    23    19    73   1 
    24    21    22   1 
    25    21    23   1 
    26    21    24   1 
    27    24    25   1 
    28    25    26   1 
    29    25    28   1 
    30    25    30   1 
    31    26    27   1 
    32    28    29   1 
    33    30    31   1 
    34    31    32   1 
    35    31    34   1 
    36    31    36   1 
    37    32    33   1 
    38    34    35   1 
    39    36    37   1 
    40    37    38   1 
    41    37    39   1 
    42    37    40   1 
    43    40    41   1 
    44    40    42   1 
    45    40    55   1 
    46    42    43   1 
    47    43    44   1 
    48    43    45   1 
    49    43    59   1 
    50    45    46   1 
    51    45    47   1 
    52    45    55   1 
    53    47    48   1 
    54    48    49   1 
    55    48    51   1 
    56    48    53   1 
    57    49    50   1 
    58    51    52   1 
    59    53    54   1 
    60    55    56   1 
    61    55    57   1 
    62    57    58   1 
    63    59    60   1 
    64    59    64   1 
    65    60    61   1 
    66    60    62   2 
    67    62    63   1 
    68    63    64   ar
    69    63    69   ar
    70    64    65   ar
    71    65    66   ar
    72    66    67   1 
    73    66    68   ar
    74    68    69   ar
    75    69    70   1 
    76    70    71   1 
    77    70    72   1 
    78    73    74   1 
    79    73    75   1 
    80    73    77   1 
    81    75    76   1 
    82    77    78   1 
    83    77    79   1 
    84    79    80   1 
 
