inp11.mol2
     Hgene          

 48 52  0  0  0  0               V2000
   94.6834   77.1553   70.4413 N   0  0  0  0  0
   94.1376   75.9958   69.9616 C   0  0  0  0  0
   93.6908   76.0213   68.8283 O   0  0  0  0  0
   94.1073   74.7170   70.7961 C   0  0  0  0  0
   93.6634   73.4963   70.2679 C   0  0  0  0  0
   93.6789   72.2865   71.0522 C   0  0  0  0  0
   94.1116   72.3808   72.4366 C   0  0  0  0  0
   94.4528   73.6224   73.0013 N   0  0  0  0  0
   94.5226   74.7972   72.1780 C   0  0  0  0  0
   94.7006   73.7278   74.4737 C   0  0  0  0  0
   95.4069   74.9322   74.8055 O   0  0  0  0  0
   96.0207   74.7868   76.1015 C   0  0  0  0  0
   95.1746   75.2605   77.2956 C   0  0  0  0  0
   93.9437   74.5548   77.3850 O   0  0  0  0  0
   92.6631   75.2592   76.7707 P   0  0  2  0  0
   91.8240   74.0614   76.1418 O   0  0  0  0  0
   93.0043   76.3445   75.6271 O   0  0  0  0  0
   91.9165   75.9561   77.9761 O   0  0  0  0  0
   92.0803   77.4598   78.4340 P   0  0  1  0  0
   91.0361   78.3138   77.6010 O   0  0  0  0  0
   91.7827   77.3230   79.9763 O   0  0  0  0  0
   93.5520   78.0846   78.2563 O   0  0  0  0  0
   94.0054   79.1623   79.1052 C   0  0  0  0  0
   93.2663   80.5191   78.9255 C   0  0  0  0  0
   93.6439   81.1400   77.6807 O   0  0  0  0  0
   93.2977   82.5518   77.7421 C   0  0  0  0  0
   93.6361   82.9227   79.2168 C   0  0  0  0  0
   94.8625   83.6712   79.3938 O   0  0  0  0  0
   96.2363   83.4645   78.5624 P   0  0  2  0  0
   96.6391   81.9124   78.4257 O   0  0  0  0  0
   97.3657   84.2631   79.3188 O   0  0  0  0  0
   96.1263   84.1610   77.1278 O   0  0  0  0  0
   93.7671   81.5675   79.9200 C   0  0  0  0  0
   92.9979   81.6201   81.0920 O   0  0  0  0  0
   91.9057   82.8009   77.3025 N   0  0  0  0  0
   91.1072   81.9145   76.5610 C   0  0  0  0  0
   89.8668   82.3528   76.3378 N   0  0  0  0  0
   89.9140   83.6227   76.7995 C   0  0  0  0  0
   91.1473   83.9380   77.3849 C   0  0  0  0  0
   91.4184   85.2226   77.8663 N   0  0  0  0  0
   90.4282   86.1739   77.6312 C   0  0  0  0  0
   89.1484   85.9211   77.1706 N   0  0  0  0  0
   88.9078   84.6407   76.6799 C   0  0  0  0  0
   87.7212   84.4131   76.0249 N   0  0  0  0  0
   96.2178   73.2716   76.2184 C   0  0  0  0  0
   97.5939   73.0083   76.2884 O   0  0  0  0  0
   95.6475   72.6565   74.9503 C   0  0  0  0  0
   95.0417   71.3933   75.2104 O   0  0  0  0  0
  1  2  1  0
  2  3  2  0
  2  4  1  0
  4  5  4  0
  4  9  4  0
  5  6  4  0
  6  7  4  0
  7  8  4  0
  8  9  4  0
  8 10  1  0
 10 11  1  0
 10 47  1  0
 11 12  1  0
 12 13  1  0
 12 45  1  0
 13 14  1  0
 14 15  1  0
 15 16  1  0
 15 17  1  0
 15 18  1  0
 18 19  1  0
 19 20  1  0
 19 21  1  0
 19 22  1  0
 22 23  1  0
 23 24  1  0
 24 25  1  0
 24 33  1  0
 25 26  1  0
 26 27  1  0
 26 35  1  0
 27 28  1  0
 27 33  1  0
 28 29  1  0
 29 30  1  0
 29 31  1  0
 29 32  1  0
 33 34  1  0
 35 36  1  0
 35 39  1  0
 36 37  2  0
 37 38  1  0
 38 39  4  0
 38 43  4  0
 39 40  4  0
 40 41  4  0
 41 42  4  0
 42 43  4  0
 43 44  1  0
 45 46  1  0
 45 47  1  0
 47 48  1  0
M  END
$$$$
