inp11.mol2
     Hgene          

 48 52  0  0  0  0               V2000
   96.4967   77.2339   69.8984 N   0  0  0  0  0
   96.3650   75.8925   69.5909 C   0  0  0  0  0
   96.3448   75.5991   68.4224 O   0  0  0  0  0
   96.2433   74.8400   70.7141 C   0  0  0  0  0
   96.0708   73.4474   70.4000 C   0  0  0  0  0
   95.9157   72.5060   71.4936 C   0  0  0  0  0
   95.9377   72.9659   72.8191 C   0  0  0  0  0
   96.1577   74.3452   73.1583 N   0  0  0  0  0
   96.3015   75.2667   72.0449 C   0  0  0  0  0
   96.2427   74.8074   74.5376 C   0  0  0  0  0
   96.4747   76.2273   74.7171 O   0  0  0  0  0
   96.7267   76.5011   76.1190 C   0  0  0  0  0
   95.4234   76.7835   76.9221 C   0  0  0  0  0
   94.5447   75.6550   76.8094 O   0  0  0  0  0
   93.3587   75.6732   75.7286 P   0  0  2  0  0
   93.1353   74.1777   75.1895 O   0  0  0  0  0
   93.5998   76.6242   74.4474 O   0  0  0  0  0
   92.1360   76.2090   76.5798 O   0  0  0  0  0
   91.6403   77.7135   76.7198 P   0  0  1  0  0
   90.7985   78.1883   75.4165 O   0  0  0  0  0
   90.8568   77.5659   78.1163 O   0  0  0  0  0
   92.8444   78.7757   76.8878 O   0  0  0  0  0
   92.6657   80.0911   77.4747 C   0  0  0  0  0
   91.6990   81.0637   76.7272 C   0  0  0  0  0
   92.2330   81.6587   75.5296 O   0  0  0  0  0
   91.3246   82.7398   75.1701 C   0  0  0  0  0
   91.0145   83.4004   76.5621 C   0  0  0  0  0
   91.7837   84.6101   76.8810 O   0  0  0  0  0
   93.3585   84.9150   76.5768 P   0  0  2  0  0
   94.2445   83.5835   76.7518 O   0  0  0  0  0
   93.9028   86.0447   77.5818 O   0  0  0  0  0
   93.5026   85.4343   75.0604 O   0  0  0  0  0
   91.3519   82.2886   77.5754 C   0  0  0  0  0
   90.2362   82.0084   78.4019 O   0  0  0  0  0
   90.1322   82.2885   74.3877 N   0  0  0  0  0
   89.8502   81.0459   73.7759 C   0  0  0  0  0
   88.6981   81.0219   73.0769 N   0  0  0  0  0
   88.2751   82.3080   73.1595 C   0  0  0  0  0
   89.0505   83.0580   74.0560 C   0  0  0  0  0
   88.7413   84.3581   74.3970 N   0  0  0  0  0
   87.6758   84.9191   73.7286 C   0  0  0  0  0
   86.8546   84.2894   72.8018 N   0  0  0  0  0
   87.1662   82.9711   72.4878 C   0  0  0  0  0
   86.3782   82.3387   71.5454 N   0  0  0  0  0
   97.4215   75.1991   76.5960 C   0  0  0  0  0
   98.7460   75.4254   77.0471 O   0  0  0  0  0
   97.4311   74.3171   75.3400 C   0  0  0  0  0
   97.2285   72.9460   75.6166 O   0  0  0  0  0
  1  2  1  0
  2  3  2  0
  2  4  1  0
  4  5  4  0
  4  9  4  0
  5  6  4  0
  6  7  4  0
  7  8  4  0
  8  9  4  0
  8 10  1  0
 10 11  1  0
 10 47  1  0
 11 12  1  0
 12 13  1  0
 12 45  1  0
 13 14  1  0
 14 15  1  0
 15 16  1  0
 15 17  1  0
 15 18  1  0
 18 19  1  0
 19 20  1  0
 19 21  1  0
 19 22  1  0
 22 23  1  0
 23 24  1  0
 24 25  1  0
 24 33  1  0
 25 26  1  0
 26 27  1  0
 26 35  1  0
 27 28  1  0
 27 33  1  0
 28 29  1  0
 29 30  1  0
 29 31  1  0
 29 32  1  0
 33 34  1  0
 35 36  1  0
 35 39  1  0
 36 37  2  0
 37 38  1  0
 38 39  4  0
 38 43  4  0
 39 40  4  0
 40 41  4  0
 41 42  4  0
 42 43  4  0
 43 44  1  0
 45 46  1  0
 45 47  1  0
 47 48  1  0
M  END
$$$$
