inp11.mol2
     Hgene          

 48 52  0  0  0  0               V2000
   93.7123   75.7511   72.9014 N   0  0  0  0  0
   93.9591   75.0069   74.0422 C   0  0  0  0  0
   93.9969   73.7869   73.9020 O   0  0  0  0  0
   94.1396   75.6105   75.3728 C   0  0  0  0  0
   93.9296   74.7803   76.5143 C   0  0  0  0  0
   93.9676   75.2902   77.7840 C   0  0  0  0  0
   94.3205   76.6958   78.0030 C   0  0  0  0  0
   94.6709   77.5438   76.9137 N   0  0  0  0  0
   94.5039   77.0255   75.6052 C   0  0  0  0  0
   95.1562   78.9717   77.2480 C   0  0  0  0  0
   95.0943   79.7962   76.0648 O   0  0  0  0  0
   95.6438   81.1117   76.3567 C   0  0  0  0  0
   94.5563   82.1748   76.7636 C   0  0  0  0  0
   93.6712   81.7394   77.8275 O   0  0  0  0  0
   92.2436   80.9982   77.6072 P   0  0  2  0  0
   92.1392   79.9416   78.8129 O   0  0  0  0  0
   92.2048   80.1376   76.2415 O   0  0  0  0  0
   91.0215   82.0644   77.6520 O   0  0  0  0  0
   90.4161   82.9663   76.4520 P   0  0  1  0  0
   89.1928   82.2452   75.6948 O   0  0  0  0  0
   89.8748   84.3495   77.0706 O   0  0  0  0  0
   91.6058   83.2888   75.3930 O   0  0  0  0  0
   91.6343   84.4729   74.5567 C   0  0  0  0  0
   90.4053   84.5656   73.6091 C   0  0  0  0  0
   90.5798   83.6361   72.5201 O   0  0  0  0  0
   89.6488   83.9976   71.4726 C   0  0  0  0  0
   89.5997   85.5617   71.5487 C   0  0  0  0  0
   90.3091   86.1951   70.4360 O   0  0  0  0  0
   91.6799   85.6837   69.7077 P   0  0  2  0  0
   92.7387   85.1052   70.7717 O   0  0  0  0  0
   92.3435   86.9151   68.9254 O   0  0  0  0  0
   91.3206   84.5230   68.6550 O   0  0  0  0  0
   90.2940   85.9185   72.8844 C   0  0  0  0  0
   89.5782   86.8986   73.6462 O   0  0  0  0  0
   88.3623   83.2678   71.5602 N   0  0  0  0  0
   88.0608   82.0840   72.2602 C   0  0  0  0  0
   86.9397   81.4936   71.8098 N   0  0  0  0  0
   86.3497   82.4920   71.0996 C   0  0  0  0  0
   87.1846   83.6032   70.9441 C   0  0  0  0  0
   86.8030   84.7287   70.2210 N   0  0  0  0  0
   85.5307   84.7024   69.6631 C   0  0  0  0  0
   84.6043   83.6858   69.8284 N   0  0  0  0  0
   85.0440   82.5438   70.4690 C   0  0  0  0  0
   84.1831   81.4818   70.4755 N   0  0  0  0  0
   96.6914   80.8242   77.4721 C   0  0  0  0  0
   98.0240   81.2334   77.1481 O   0  0  0  0  0
   96.6105   79.2956   77.6759 C   0  0  0  0  0
   96.9673   79.0655   79.0378 O   0  0  0  0  0
  1  2  1  0
  2  3  2  0
  2  4  1  0
  4  5  4  0
  4  9  4  0
  5  6  4  0
  6  7  4  0
  7  8  4  0
  8  9  4  0
  8 10  1  0
 10 11  1  0
 10 47  1  0
 11 12  1  0
 12 13  1  0
 12 45  1  0
 13 14  1  0
 14 15  1  0
 15 16  1  0
 15 17  1  0
 15 18  1  0
 18 19  1  0
 19 20  1  0
 19 21  1  0
 19 22  1  0
 22 23  1  0
 23 24  1  0
 24 25  1  0
 24 33  1  0
 25 26  1  0
 26 27  1  0
 26 35  1  0
 27 28  1  0
 27 33  1  0
 28 29  1  0
 29 30  1  0
 29 31  1  0
 29 32  1  0
 33 34  1  0
 35 36  1  0
 35 39  1  0
 36 37  2  0
 37 38  1  0
 38 39  4  0
 38 43  4  0
 39 40  4  0
 40 41  4  0
 41 42  4  0
 42 43  4  0
 43 44  1  0
 45 46  1  0
 45 47  1  0
 47 48  1  0
M  END
$$$$
