inp11.mol2
     Hgene          

 48 52  0  0  0  0               V2000
   87.6024   81.4602   71.7291 N   0  0  0  0  0
   87.5357   82.6396   71.0153 C   0  0  0  0  0
   87.2976   82.5197   69.8403 O   0  0  0  0  0
   87.7828   84.0262   71.6699 C   0  0  0  0  0
   87.8277   85.2052   70.8465 C   0  0  0  0  0
   88.1037   86.4891   71.4700 C   0  0  0  0  0
   88.3356   86.5636   72.8494 C   0  0  0  0  0
   88.3070   85.4083   73.6980 N   0  0  0  0  0
   87.9996   84.1277   73.0529 C   0  0  0  0  0
   88.6252   85.5106   75.1182 C   0  0  0  0  0
   88.4821   84.2482   75.8108 O   0  0  0  0  0
   88.6110   84.4985   77.2206 C   0  0  0  0  0
   90.0513   84.4193   77.7456 C   0  0  0  0  0
   90.9433   85.3481   77.1083 O   0  0  0  0  0
   92.0039   84.8742   75.9944 P   0  0  2  0  0
   92.1762   86.0670   74.9361 O   0  0  0  0  0
   91.4762   83.5693   75.2015 O   0  0  0  0  0
   93.4101   84.5948   76.7208 O   0  0  0  0  0
   93.8892   83.1924   77.3339 P   0  0  1  0  0
   94.4988   82.2865   76.1469 O   0  0  0  0  0
   95.0052   83.4755   78.4610 O   0  0  0  0  0
   92.5963   82.4662   78.0017 O   0  0  0  0  0
   92.7392   81.4264   78.9775 C   0  0  0  0  0
   93.6009   80.2807   78.4220 C   0  0  0  0  0
   92.8586   79.4134   77.5297 O   0  0  0  0  0
   93.5626   78.1512   77.4524 C   0  0  0  0  0
   94.1359   78.0742   78.8728 C   0  0  0  0  0
   93.4299   77.1091   79.6890 O   0  0  0  0  0
   91.8772   76.6874   79.4926 P   0  0  2  0  0
   91.0280   77.9811   79.2008 O   0  0  0  0  0
   91.3346   75.9865   80.7969 O   0  0  0  0  0
   91.8674   75.6998   78.2516 O   0  0  0  0  0
   93.9702   79.4086   79.5790 C   0  0  0  0  0
   95.1077   79.9204   80.2777 O   0  0  0  0  0
   94.6302   78.0720   76.4432 N   0  0  0  0  0
   94.8740   78.9917   75.4212 C   0  0  0  0  0
   95.9307   78.6844   74.6591 N   0  0  0  0  0
   96.3790   77.5243   75.2042 C   0  0  0  0  0
   95.6091   77.1128   76.2961 C   0  0  0  0  0
   95.8955   75.9482   76.9912 N   0  0  0  0  0
   97.0147   75.2410   76.5902 C   0  0  0  0  0
   97.8236   75.5471   75.5019 N   0  0  0  0  0
   97.4993   76.7019   74.7919 C   0  0  0  0  0
   98.2462   77.0433   73.6849 N   0  0  0  0  0
   88.1513   85.9793   77.3949 C   0  0  0  0  0
   87.0771   86.2452   78.2942 O   0  0  0  0  0
   87.7066   86.3624   75.9987 C   0  0  0  0  0
   87.8354   87.7703   75.8801 O   0  0  0  0  0
  1  2  1  0
  2  3  2  0
  2  4  1  0
  4  5  4  0
  4  9  4  0
  5  6  4  0
  6  7  4  0
  7  8  4  0
  8  9  4  0
  8 10  1  0
 10 11  1  0
 10 47  1  0
 11 12  1  0
 12 13  1  0
 12 45  1  0
 13 14  1  0
 14 15  1  0
 15 16  1  0
 15 17  1  0
 15 18  1  0
 18 19  1  0
 19 20  1  0
 19 21  1  0
 19 22  1  0
 22 23  1  0
 23 24  1  0
 24 25  1  0
 24 33  1  0
 25 26  1  0
 26 27  1  0
 26 35  1  0
 27 28  1  0
 27 33  1  0
 28 29  1  0
 29 30  1  0
 29 31  1  0
 29 32  1  0
 33 34  1  0
 35 36  1  0
 35 39  1  0
 36 37  2  0
 37 38  1  0
 38 39  4  0
 38 43  4  0
 39 40  4  0
 40 41  4  0
 41 42  4  0
 42 43  4  0
 43 44  1  0
 45 46  1  0
 45 47  1  0
 47 48  1  0
M  END
$$$$
