@<TRIPOS>COMMENT
   inp11.mol2              8    of   10
                  SCORE =  -309.9015
               dG-SCORE =    -5.9986
      LIGAND_EFFICIENCY =    -0.6456
  NUMBER_OF_HEAVY_ATOMS =         48
                    ASA =  -251.4430
                    ELE =     0.0000
                    HYD =   -43.1706
                    VDW =   -15.2879
                   RMSD =    27.9263
 MOLECULAR_WEIGHT = 747.44
@<TRIPOS>MOLECULE
inp11.mol2                                                                      
   80   84    0    0    0
SMALL       
GASTEIGER      
 
@<TRIPOS>ATOM
    1 N        90.3746   83.8450   77.4062 N.am     1 UNK          0.0000
    2 H        90.8451   82.9911   77.6924 H        1 UNK          0.0000
    3 H        89.4284   83.7997   77.0746 H        1 UNK          0.0000
    4 C        91.0370   85.0663   77.4632 C.2      1 UNK          0.0000
    5 O        90.3981   86.0303   77.0430 O.2      1 UNK          0.0000
    6 C        92.4399   85.1999   77.9673 C.ar     1 UNK          0.0000
    7 C        93.2168   86.3944   77.8400 C.ar     1 UNK          0.0000
    8 H        92.7616   87.2675   77.3505 H        1 UNK          0.0000
    9 C        94.5476   86.4765   78.2762 C.ar     1 UNK          0.0000
   10 H        95.1359   87.3628   78.1192 H        1 UNK          0.0000
   11 C        95.1744   85.3342   78.9179 C.ar     1 UNK          0.0000
   12 H        96.1909   85.4050   79.2828 H        1 UNK          0.0000
   13 N        94.4175   84.1315   79.0592 N.ar     1 UNK          0.0000
   14 C        93.1032   84.0560   78.5958 C.ar     1 UNK          0.0000
   15 H        92.5710   83.1190   78.6964 H        1 UNK          0.0000
   16 C        95.0364   82.9167   79.7116 C.3      1 UNK          0.0000
   17 H        96.0255   82.7648   79.2718 H        1 UNK          0.0000
   18 O        94.2450   81.7157   79.6785 O.3      1 UNK          0.0000
   19 C        94.9193   80.7294   80.5148 C.3      1 UNK          0.0000
   20 H        94.1890   80.0308   80.9154 H        1 UNK          0.0000
   21 C        96.0030   79.9101   79.7571 C.3      1 UNK          0.0000
   22 H        96.5660   79.3663   80.5031 H        1 UNK          0.0000
   23 H        95.5194   79.1804   79.0987 H        1 UNK          0.0000
   24 O        96.9573   80.7149   79.0453 O.3      1 UNK          0.0000
   25 P        96.8411   81.0023   77.4607 P.3      1 UNK          0.0000
   26 O        97.5337   82.4202   77.1641 O.3      1 UNK          0.0000
   27 H        97.4094   82.6239   76.2190 H        1 UNK          0.0000
   28 O        95.3015   81.1012   76.9919 O.3      1 UNK          0.0000
   29 H        94.8663   80.2407   77.1527 H        1 UNK          0.0000
   30 O        97.6069   79.8445   76.6480 O.3      1 UNK          0.0000
   31 P        96.9803   78.4862   76.0534 P.3      1 UNK          0.0000
   32 O        96.2729   78.7719   74.6353 O.3      1 UNK          0.0000
   33 H        96.9153   79.1450   74.0074 H        1 UNK          0.0000
   34 O        98.1771   77.4233   75.8957 O.3      1 UNK          0.0000
   35 H        98.8052   77.7440   75.2291 H        1 UNK          0.0000
   36 O        95.8846   77.8876   77.0820 O.3      1 UNK          0.0000
   37 C        95.6125   76.4741   77.1520 C.3      1 UNK          0.0000
   38 H        96.5359   75.9474   77.4166 H        1 UNK          0.0000
   39 H        94.8651   76.2909   77.9282 H        1 UNK          0.0000
   40 C        95.0645   75.8432   75.8612 C.3      1 UNK          0.0000
   41 H        95.6253   76.1330   74.9665 H        1 UNK          0.0000
   42 O        93.6733   76.1816   75.7239 O.3      1 UNK          0.0000
   43 C        93.1777   75.3159   74.6800 C.3      1 UNK          0.0000
   44 H        92.0948   75.2338   74.7851 H        1 UNK          0.0000
   45 C        93.8631   73.9481   75.0086 C.3      1 UNK          0.0000
   46 H        94.2589   73.4936   74.0957 H        1 UNK          0.0000
   47 O        93.0509   73.0018   75.7507 O.3      1 UNK          0.0000
   48 P        92.0319   73.3973   76.9477 P.3      1 UNK          0.0000
   49 O        92.4667   74.6611   77.8429 O.3      1 UNK          0.0000
   50 H        92.4722   75.4508   77.2738 H        1 UNK          0.0000
   51 O        91.8096   72.1739   77.9036 O.3      1 UNK          0.0000
   52 H        91.2817   71.4983   77.4685 H        1 UNK          0.0000
   53 O        90.6333   73.6567   76.2552 O.3      1 UNK          0.0000
   54 H        90.0004   73.9036   76.9391 H        1 UNK          0.0000
   55 C        94.9912   74.3168   75.9739 C.3      1 UNK          0.0000
   56 H        94.6647   74.0647   76.9916 H        1 UNK          0.0000
   57 O        96.1819   73.6033   75.6612 O.3      1 UNK          0.0000
   58 H        95.9248   72.6637   75.6059 H        1 UNK          0.0000
   59 N        93.4013   75.9314   73.3389 N.ar     1 UNK          0.0000
   60 C        93.6795   77.2796   73.0325 C.ar     1 UNK          0.0000
   61 H        93.8356   78.0089   73.8158 H        1 UNK          0.0000
   62 N        93.7152   77.5507   71.7182 N.ar     1 UNK          0.0000
   63 C        93.4700   76.3483   71.1552 C.ar     1 UNK          0.0000
   64 C        93.3304   75.3381   72.1112 C.ar     1 UNK          0.0000
   65 N        93.1120   74.0254   71.7404 N.ar     1 UNK          0.0000
   66 C        92.9317   73.7720   70.3789 C.ar     1 UNK          0.0000
   67 H        92.5359   72.7969   70.0924 H        1 UNK          0.0000
   68 N        93.0944   74.6906   69.3647 N.ar     1 UNK          0.0000
   69 C        93.3486   75.9918   69.7503 C.ar     1 UNK          0.0000
   70 N        93.4811   76.8889   68.7299 N.pl3    1 UNK          0.0000
   71 H        93.7219   77.8450   68.9303 H        1 UNK          0.0000
   72 H        93.3403   76.5723   67.7820 H        1 UNK          0.0000
   73 C        95.6205   81.5956   81.5939 C.3      1 UNK          0.0000
   74 H        96.6765   81.4676   81.3661 H        1 UNK          0.0000
   75 O        95.4430   81.5325   83.0218 O.3      1 UNK          0.0000
   76 H        95.7024   80.6730   83.3785 H        1 UNK          0.0000
   77 C        95.1174   82.9839   81.2027 C.3      1 UNK          0.0000
   78 H        94.1167   83.1484   81.6172 H        1 UNK          0.0000
   79 O        96.0476   83.9649   81.6380 O.3      1 UNK          0.0000
   80 H        96.3036   83.7332   82.5536 H        1 UNK          0.0000
@<TRIPOS>BOND
     1     1     2   1 
     2     1     3   1 
     3     1     4   am
     4     4     5   2 
     5     4     6   1 
     6     6     7   ar
     7     6    14   ar
     8     7     8   1 
     9     7     9   ar
    10     9    10   1 
    11     9    11   ar
    12    11    12   1 
    13    11    13   ar
    14    13    14   ar
    15    13    16   1 
    16    14    15   1 
    17    16    17   1 
    18    16    18   1 
    19    16    77   1 
    20    18    19   1 
    21    19    20   1 
    22    19    21   1 
    23    19    73   1 
    24    21    22   1 
    25    21    23   1 
    26    21    24   1 
    27    24    25   1 
    28    25    26   1 
    29    25    28   1 
    30    25    30   1 
    31    26    27   1 
    32    28    29   1 
    33    30    31   1 
    34    31    32   1 
    35    31    34   1 
    36    31    36   1 
    37    32    33   1 
    38    34    35   1 
    39    36    37   1 
    40    37    38   1 
    41    37    39   1 
    42    37    40   1 
    43    40    41   1 
    44    40    42   1 
    45    40    55   1 
    46    42    43   1 
    47    43    44   1 
    48    43    45   1 
    49    43    59   1 
    50    45    46   1 
    51    45    47   1 
    52    45    55   1 
    53    47    48   1 
    54    48    49   1 
    55    48    51   1 
    56    48    53   1 
    57    49    50   1 
    58    51    52   1 
    59    53    54   1 
    60    55    56   1 
    61    55    57   1 
    62    57    58   1 
    63    59    60   1 
    64    59    64   1 
    65    60    61   1 
    66    60    62   2 
    67    62    63   1 
    68    63    64   ar
    69    63    69   ar
    70    64    65   ar
    71    65    66   ar
    72    66    67   1 
    73    66    68   ar
    74    68    69   ar
    75    69    70   1 
    76    70    71   1 
    77    70    72   1 
    78    73    74   1 
    79    73    75   1 
    80    73    77   1 
    81    75    76   1 
    82    77    78   1 
    83    77    79   1 
    84    79    80   1 
 
