inp11.mol2
     Hgene          

 22 23  0  0  0  0               V2000
   92.8346   77.2838   78.7262 P   0  0  2  0  0
   92.8111   81.7394   78.3732 O   0  0  0  0  0
   93.2372   78.8067   78.3554 O   0  0  0  0  0
   92.2657   76.2288   77.6698 O   0  0  0  0  0
   91.4717   77.8791   78.1937 O   0  0  0  0  0
   94.0030   77.0738   77.6512 O   0  0  0  0  0
   88.6327   81.9485   75.2929 O   0  0  0  0  0
   91.8818   83.7746   77.5516 N   0  0  0  0  0
   87.4033   83.7819   75.3117 N   0  0  0  0  0
   94.7590   82.2408   79.4793 C   0  0  0  0  0
   94.1143   83.5517   78.9543 C   0  0  0  0  0
   94.0565   81.1009   78.6783 C   0  0  0  0  0
   93.1333   83.0346   77.8409 C   0  0  0  0  0
   94.4892   82.2284   80.9795 C   0  0  0  0  0
   95.1663   84.6135   78.5269 C   0  0  0  0  0
   93.7527   79.7299   79.3431 C   0  0  0  0  0
   90.7789   83.0859   76.8853 C   0  0  0  0  0
   91.6728   85.1672   77.8454 C   0  0  0  0  0
   89.5707   83.7537   76.5684 C   0  0  0  0  0
   90.4560   85.8291   77.5636 C   0  0  0  0  0
   89.3759   85.1164   76.9450 C   0  0  0  0  0
   88.5029   83.0761   75.7139 C   0  0  0  0  0
  1  3  1  0
  1  4  1  0
  1  5  1  0
  1  6  1  0
  2 12  1  0
  2 13  1  0
  3 16  1  0
  7 22  2  0
  8 13  1  0
  8 17  4  0
  8 18  4  0
  9 22  1  0
 10 11  1  0
 10 12  1  0
 10 14  1  0
 11 13  1  0
 11 15  1  0
 12 16  1  0
 17 19  4  0
 18 20  4  0
 19 21  4  0
 19 22  1  0
 20 21  4  0
M  END
$$$$
