@<TRIPOS>COMMENT
   inp11.mol2              7    of   10
                  SCORE =  -250.6086
               dG-SCORE =    -5.8822
      LIGAND_EFFICIENCY =    -1.1391
  NUMBER_OF_HEAVY_ATOMS =         22
                    ASA =  -218.0657
                    ELE =     0.0000
                    HYD =   -28.4743
                    VDW =    -4.0686
                   RMSD =    32.0715
 MOLECULAR_WEIGHT = 332.29
@<TRIPOS>MOLECULE
inp11.mol2                                                                      
   43   44    0    0    0
SMALL       
GASTEIGER      
 
@<TRIPOS>ATOM
    1 P        89.5057   78.6141   73.5944 P.3      1 UNK          0.0000
    2 O        87.8225   82.4101   72.7257 O.3      1 UNK          0.0000
    3 O        89.4915   80.1745   73.2213 O.3      1 UNK          0.0000
    4 O        89.5128   77.5715   72.3666 O.3      1 UNK          0.0000
    5 H        89.9229   77.9837   71.5916 H        1 UNK          0.0000
    6 O        88.1410   78.8907   72.8319 O.3      1 UNK          0.0000
    7 H        88.3960   79.1376   71.9239 H        1 UNK          0.0000
    8 O        90.9616   78.8629   72.9601 O.3      1 UNK          0.0000
    9 H        91.5505   78.1241   73.1909 H        1 UNK          0.0000
   10 O        84.8286   80.6713   68.9223 O.2      1 UNK          0.0000
   11 N        86.2295   83.7352   71.5838 N.ar     1 UNK          0.0000
   12 N        82.8921   81.6473   68.5348 N.am     1 UNK          0.0000
   13 H        82.6370   80.9097   67.8818 H        1 UNK          0.0000
   14 H        82.2186   82.3579   68.7547 H        1 UNK          0.0000
   15 C        88.7698   83.7787   74.3531 C.3      1 UNK          0.0000
   16 H        89.7320   84.2980   74.4476 H        1 UNK          0.0000
   17 C        87.7853   84.6029   73.4765 C.3      1 UNK          0.0000
   18 H        86.8329   84.7048   74.0135 H        1 UNK          0.0000
   19 C        89.0164   82.5091   73.4901 C.3      1 UNK          0.0000
   20 H        89.8572   82.6944   72.8061 H        1 UNK          0.0000
   21 C        87.5551   83.7091   72.2129 C.3      1 UNK          0.0000
   22 H        88.3076   83.9516   71.4468 H        1 UNK          0.0000
   23 C        88.2080   83.5627   75.7899 C.3      1 UNK          0.0000
   24 H        88.8782   82.9337   76.3898 H        1 UNK          0.0000
   25 H        87.2288   83.0917   75.7622 H        1 UNK          0.0000
   26 H        88.0947   84.5198   76.3061 H        1 UNK          0.0000
   27 C        88.3417   85.9974   73.0892 C.3      1 UNK          0.0000
   28 H        88.4835   86.6244   73.9807 H        1 UNK          0.0000
   29 H        89.3160   85.9005   72.5930 H        1 UNK          0.0000
   30 H        87.6822   86.5285   72.3934 H        1 UNK          0.0000
   31 C        89.2462   81.1737   74.2150 C.3      1 UNK          0.0000
   32 H        90.1052   81.2587   74.8882 H        1 UNK          0.0000
   33 H        88.3468   80.9095   74.7785 H        1 UNK          0.0000
   34 C        85.8003   82.6441   70.7262 C.ar     1 UNK          0.0000
   35 H        86.4771   81.8011   70.6055 H        1 UNK          0.0000
   36 C        85.3429   84.8276   71.7326 C.ar     1 UNK          0.0000
   37 H        85.6896   85.6379   72.3884 H        1 UNK          0.0000
   38 C        84.5420   82.7054   70.0822 C.ar     1 UNK          0.0000
   39 C        84.1171   84.8997   71.0425 C.ar     1 UNK          0.0000
   40 H        83.5096   85.7681   71.0398 H        1 UNK          0.0000
   41 C        83.6844   83.8068   70.2493 C.ar     1 UNK          0.0000
   42 H        82.7379   83.8595   69.7626 H        1 UNK          0.0000
   43 C        84.1104   81.5957   69.1529 C.2      1 UNK          0.0000
@<TRIPOS>BOND
     1     1     3   1 
     2     1     4   1 
     3     1     6   1 
     4     1     8   1 
     5     2    19   1 
     6     2    21   1 
     7     3    31   1 
     8     4     5   1 
     9     6     7   1 
    10     8     9   1 
    11    10    43   2 
    12    11    21   1 
    13    11    34   ar
    14    11    36   ar
    15    12    13   1 
    16    12    14   1 
    17    12    43   am
    18    15    16   1 
    19    15    17   1 
    20    15    19   1 
    21    15    23   1 
    22    17    18   1 
    23    17    21   1 
    24    17    27   1 
    25    19    20   1 
    26    19    31   1 
    27    21    22   1 
    28    23    24   1 
    29    23    25   1 
    30    23    26   1 
    31    27    28   1 
    32    27    29   1 
    33    27    30   1 
    34    31    32   1 
    35    31    33   1 
    36    34    35   1 
    37    34    38   ar
    38    36    37   1 
    39    36    39   ar
    40    38    41   ar
    41    38    43   1 
    42    39    40   1 
    43    39    41   ar
    44    41    42   1 
 
