inp11.mol2
     Hgene          

 22 23  0  0  0  0               V2000
   92.5120   78.6917   79.1233 P   0  0  2  0  0
   90.9014   81.5022   76.2229 O   0  0  0  0  0
   92.3570   80.0172   78.2120 O   0  0  0  0  0
   93.6439   77.6317   78.7725 O   0  0  0  0  0
   92.1347   78.0525   77.7038 O   0  0  0  0  0
   93.8836   79.4555   79.4511 O   0  0  0  0  0
   91.0910   78.1818   72.4311 O   0  0  0  0  0
   89.8080   81.9050   74.1124 N   0  0  0  0  0
   89.4833   78.0109   70.9399 N   0  0  0  0  0
   90.2474   83.2438   77.5324 C   0  0  0  0  0
   89.7846   83.5346   76.1039 C   0  0  0  0  0
   91.3336   82.1353   77.4343 C   0  0  0  0  0
   90.5575   82.4948   75.2435 C   0  0  0  0  0
   88.9173   82.9511   78.2404 C   0  0  0  0  0
   90.0330   85.0116   75.7295 C   0  0  0  0  0
   91.5201   81.1257   78.6153 C   0  0  0  0  0
   90.2102   80.6071   73.5921 C   0  0  0  0  0
   88.7054   82.5483   73.4540 C   0  0  0  0  0
   89.5501   80.0134   72.4908 C   0  0  0  0  0
   88.0403   81.9720   72.3529 C   0  0  0  0  0
   88.4436   80.6735   71.8751 C   0  0  0  0  0
   90.0904   78.6743   71.9692 C   0  0  0  0  0
  1  3  1  0
  1  4  1  0
  1  5  1  0
  1  6  1  0
  2 12  1  0
  2 13  1  0
  3 16  1  0
  7 22  2  0
  8 13  1  0
  8 17  4  0
  8 18  4  0
  9 22  1  0
 10 11  1  0
 10 12  1  0
 10 14  1  0
 11 13  1  0
 11 15  1  0
 12 16  1  0
 17 19  4  0
 18 20  4  0
 19 21  4  0
 19 22  1  0
 20 21  4  0
M  END
$$$$
