@<TRIPOS>COMMENT
   inp11.mol2              9    of   10
                  SCORE =  -231.8095
               dG-SCORE =    -5.1901
      LIGAND_EFFICIENCY =    -1.0537
  NUMBER_OF_HEAVY_ATOMS =         22
                    ASA =  -213.5199
                    ELE =     0.0000
                    HYD =   -14.4313
                    VDW =    -3.8582
                   RMSD =    31.4296
 MOLECULAR_WEIGHT = 332.29
@<TRIPOS>MOLECULE
inp11.mol2                                                                      
   43   44    0    0    0
SMALL       
GASTEIGER      
 
@<TRIPOS>ATOM
    1 P        85.1215   84.2423   70.8033 P.3      1 UNK          0.0000
    2 O        87.6534   83.7761   74.3681 O.3      1 UNK          0.0000
    3 O        85.5210   84.1326   72.3670 O.3      1 UNK          0.0000
    4 O        84.1624   83.1971   70.0404 O.3      1 UNK          0.0000
    5 H        83.7608   82.5752   70.6637 H        1 UNK          0.0000
    6 O        85.9844   82.8917   70.8544 O.3      1 UNK          0.0000
    7 H        85.7091   82.3658   71.6184 H        1 UNK          0.0000
    8 O        83.6954   84.3988   71.4857 O.3      1 UNK          0.0000
    9 H        83.0491   84.5518   70.7801 H        1 UNK          0.0000
   10 O        88.5517   79.1345   73.1284 O.2      1 UNK          0.0000
   11 N        89.1488   82.5020   75.6529 N.ar     1 UNK          0.0000
   12 N        90.6226   78.4014   73.2741 N.am     1 UNK          0.0000
   13 H        90.3879   77.6479   72.6394 H        1 UNK          0.0000
   14 H        91.5463   78.4648   73.6786 H        1 UNK          0.0000
   15 C        87.6008   85.8746   75.2834 C.3      1 UNK          0.0000
   16 H        86.9537   86.4332   75.9712 H        1 UNK          0.0000
   17 C        88.5374   84.9576   76.1107 C.3      1 UNK          0.0000
   18 H        89.5611   85.1149   75.7520 H        1 UNK          0.0000
   19 C        86.7479   84.8605   74.4306 C.3      1 UNK          0.0000
   20 H        85.8735   84.5700   75.0154 H        1 UNK          0.0000
   21 C        88.0974   83.5317   75.7010 C.3      1 UNK          0.0000
   22 H        87.2543   83.1799   76.2940 H        1 UNK          0.0000
   23 C        88.5029   86.8822   74.5024 C.3      1 UNK          0.0000
   24 H        87.9401   87.6055   73.9062 H        1 UNK          0.0000
   25 H        89.1746   86.3494   73.8200 H        1 UNK          0.0000
   26 H        89.1175   87.4663   75.1993 H        1 UNK          0.0000
   27 C        88.5266   85.1975   77.6375 C.3      1 UNK          0.0000
   28 H        88.8454   86.2182   77.8908 H        1 UNK          0.0000
   29 H        87.5238   85.0512   78.0320 H        1 UNK          0.0000
   30 H        89.1669   84.4858   78.1625 H        1 UNK          0.0000
   31 C        86.3203   85.1704   72.9538 C.3      1 UNK          0.0000
   32 H        85.7358   86.0833   72.9163 H        1 UNK          0.0000
   33 H        87.2145   85.3238   72.3415 H        1 UNK          0.0000
   34 C        89.0073   81.4360   74.7082 C.ar     1 UNK          0.0000
   35 H        88.1087   81.4016   74.1040 H        1 UNK          0.0000
   36 C        90.3453   82.5469   76.4402 C.ar     1 UNK          0.0000
   37 H        90.4497   83.3423   77.1807 H        1 UNK          0.0000
   38 C        90.0031   80.4534   74.5219 C.ar     1 UNK          0.0000
   39 C        91.3899   81.6034   76.2349 C.ar     1 UNK          0.0000
   40 H        92.3014   81.6646   76.8224 H        1 UNK          0.0000
   41 C        91.2340   80.5557   75.2644 C.ar     1 UNK          0.0000
   42 H        92.0251   79.8257   75.1404 H        1 UNK          0.0000
   43 C        89.6648   79.3077   73.5988 C.2      1 UNK          0.0000
@<TRIPOS>BOND
     1     1     3   1 
     2     1     4   1 
     3     1     6   1 
     4     1     8   1 
     5     2    19   1 
     6     2    21   1 
     7     3    31   1 
     8     4     5   1 
     9     6     7   1 
    10     8     9   1 
    11    10    43   2 
    12    11    21   1 
    13    11    34   ar
    14    11    36   ar
    15    12    13   1 
    16    12    14   1 
    17    12    43   am
    18    15    16   1 
    19    15    17   1 
    20    15    19   1 
    21    15    23   1 
    22    17    18   1 
    23    17    21   1 
    24    17    27   1 
    25    19    20   1 
    26    19    31   1 
    27    21    22   1 
    28    23    24   1 
    29    23    25   1 
    30    23    26   1 
    31    27    28   1 
    32    27    29   1 
    33    27    30   1 
    34    31    32   1 
    35    31    33   1 
    36    34    35   1 
    37    34    38   ar
    38    36    37   1 
    39    36    39   ar
    40    38    41   ar
    41    38    43   1 
    42    39    40   1 
    43    39    41   ar
    44    41    42   1 
 
