@<TRIPOS>COMMENT
   inp11.mol2              1    of   10
                  SCORE =  -395.0736
               dG-SCORE =    -8.3502
      LIGAND_EFFICIENCY =    -0.7454
  NUMBER_OF_HEAVY_ATOMS =         53
                    ASA =  -328.5508
                    ELE =     0.0000
                    HYD =   -58.3136
                    VDW =    -8.2092
                   RMSD =    29.7505
 MOLECULAR_WEIGHT = 789.59
@<TRIPOS>MOLECULE
inp11.mol2                                                                      
   90   95    0    0    0
SMALL       
GASTEIGER      
 
@<TRIPOS>ATOM
    1 P        94.7169   79.2566   77.8253 P.3      1 UNK          0.0000
    2 P        93.7232   78.1213   75.2294 P.3      1 UNK          0.0000
    3 O        94.3912   75.8522   78.6481 O.3      1 UNK          0.0000
    4 O        92.7971   74.1309   76.1768 O.3      1 UNK          0.0000
    5 H        93.1922   73.2833   75.9054 H        1 UNK          0.0000
    6 O        91.0984   76.0048   77.7124 O.3      1 UNK          0.0000
    7 H        90.5084   75.2421   77.6549 H        1 UNK          0.0000
    8 O        93.7786   78.9344   79.1053 O.3      1 UNK          0.0000
    9 O        90.7415   83.5320   72.2754 O.3      1 UNK          0.0000
   10 H        91.4942   83.7961   71.7016 H        1 UNK          0.0000
   11 O        93.8660   79.2139   76.4378 O.3      1 UNK          0.0000
   12 O        91.5821   81.0576   71.3593 O.3      1 UNK          0.0000
   13 H        90.8451   80.4915   71.6597 H        1 UNK          0.0000
   14 O        92.2795   78.2566   74.5085 O.3      1 UNK          0.0000
   15 O        93.8492   79.9666   72.6223 O.3      1 UNK          0.0000
   16 H        93.4390   79.5496   71.8421 H        1 UNK          0.0000
   17 O        95.3505   80.7191   78.0565 O.3      1 UNK          0.0000
   18 H        94.6364   81.3800   78.0395 H        1 UNK          0.0000
   19 O        95.9524   78.2291   77.8089 O.3      1 UNK          0.0000
   20 H        96.4551   78.3713   76.9901 H        1 UNK          0.0000
   21 O        94.9143   78.1581   74.1602 O.3      1 UNK          0.0000
   22 H        95.7594   78.1210   74.6259 H        1 UNK          0.0000
   23 O        87.7001   86.6968   77.1528 O.2      1 UNK          0.0000
   24 O        93.8253   76.5998   75.6595 O.3      1 UNK          0.0000
   25 H        93.4581   76.0355   74.9546 H        1 UNK          0.0000
   26 O        91.5512   84.5811   78.0687 O.2      1 UNK          0.0000
   27 N        95.0629   73.5470   78.7145 N.ar     1 UNK          0.0000
   28 N        89.0377   82.8515   74.4601 N.ar     1 UNK          0.0000
   29 N        96.4458   71.8702   79.3705 N.ar     1 UNK          0.0000
   30 N        93.7403   73.6227   80.7975 N.ar     1 UNK          0.0000
   31 N        86.9629   84.7589   75.0637 N.ar     1 UNK          0.0000
   32 H        86.2071   85.3696   75.3476 H        1 UNK          0.0000
   33 N        90.2845   83.6255   76.4799 N.am     1 UNK          0.0000
   34 H        91.0089   82.9310   76.3204 H        1 UNK          0.0000
   35 N        94.7682   72.3500   82.6681 N.ar     1 UNK          0.0000
   36 N        89.5133   85.5432   77.8022 N.am     1 UNK          0.0000
   37 H        89.6417   86.1465   78.5856 H        1 UNK          0.0000
   38 N        96.6965   71.3756   82.5596 N.pl3    1 UNK          0.0000
   39 H        96.4968   71.1619   83.5200 H        1 UNK          0.0000
   40 H        97.5736   71.1042   82.1320 H        1 UNK          0.0000
   41 C        92.9566   74.2777   77.5908 C.3      1 UNK          0.0000
   42 H        92.6677   73.3495   78.0904 H        1 UNK          0.0000
   43 C        92.2669   75.4902   78.2795 C.3      1 UNK          0.0000
   44 H        92.1053   75.2134   79.3224 H        1 UNK          0.0000
   45 C        94.4348   74.5885   77.8832 C.3      1 UNK          0.0000
   46 H        95.0288   74.7417   76.9701 H        1 UNK          0.0000
   47 C        93.2336   76.6291   78.2954 C.3      1 UNK          0.0000
   48 H        93.3562   77.0042   77.2848 H        1 UNK          0.0000
   49 C        92.7972   77.8729   79.1431 C.3      1 UNK          0.0000
   50 H        91.8657   78.2437   78.7098 H        1 UNK          0.0000
   51 H        92.5661   77.6068   80.1701 H        1 UNK          0.0000
   52 C        94.7735   73.1988   79.9907 C.ar     1 UNK          0.0000
   53 C        96.2270   72.8611   78.4876 C.ar     1 UNK          0.0000
   54 H        96.8727   73.1718   77.6765 H        1 UNK          0.0000
   55 C        95.7625   72.3318   80.4358 C.ar     1 UNK          0.0000
   56 C        91.2708   82.6180   73.2481 C.3      1 UNK          0.0000
   57 H        91.8869   83.1928   73.9533 H        1 UNK          0.0000
   58 C        90.1410   81.9076   74.0629 C.3      1 UNK          0.0000
   59 H        90.5888   81.4555   74.9618 H        1 UNK          0.0000
   60 H        89.7468   81.0638   73.4920 H        1 UNK          0.0000
   61 C        92.2218   81.6209   72.5177 C.3      1 UNK          0.0000
   62 H        93.0932   82.2022   72.1835 H        1 UNK          0.0000
   63 C        87.9276   83.0464   73.5288 C.ar     1 UNK          0.0000
   64 C        92.7857   80.4837   73.4136 C.3      1 UNK          0.0000
   65 H        93.1948   80.9188   74.3365 H        1 UNK          0.0000
   66 C        89.1391   83.6582   75.6160 C.ar     1 UNK          0.0000
   67 C        86.9118   84.0480   73.8795 C.ar     1 UNK          0.0000
   68 C        88.1259   84.6834   75.9019 C.ar     1 UNK          0.0000
   69 C        95.7875   71.9969   81.8431 C.ar     1 UNK          0.0000
   70 C        91.7227   79.4082   73.8431 C.3      1 UNK          0.0000
   71 H        91.1528   79.0784   72.9660 H        1 UNK          0.0000
   72 H        91.0000   79.8852   74.5190 H        1 UNK          0.0000
   73 C        87.7960   82.3198   72.3153 C.ar     1 UNK          0.0000
   74 H        88.5151   81.5562   72.0125 H        1 UNK          0.0000
   75 C        85.8274   84.2723   72.9674 C.ar     1 UNK          0.0000
   76 H        85.0669   84.9741   73.2572 H        1 UNK          0.0000
   77 C        86.6903   82.5453   71.4243 C.ar     1 UNK          0.0000
   78 C        85.7151   83.5536   71.7545 C.ar     1 UNK          0.0000
   79 C        93.8346   73.2119   82.1243 C.ar     1 UNK          0.0000
   80 H        93.0938   73.6243   82.8097 H        1 UNK          0.0000
   81 C        88.3845   85.6952   76.9816 C.2      1 UNK          0.0000
   82 C        90.4814   84.5651   77.4865 C.2      1 UNK          0.0000
   83 C        86.5900   81.6864   70.1853 C.3      1 UNK          0.0000
   84 H        87.4812   81.0540   70.0928 H        1 UNK          0.0000
   85 H        85.7021   81.0422   70.2179 H        1 UNK          0.0000
   86 H        86.5236   82.2836   69.2662 H        1 UNK          0.0000
   87 C        84.5084   83.8134   70.8316 C.3      1 UNK          0.0000
   88 H        83.7871   84.4826   71.3070 H        1 UNK          0.0000
   89 H        83.9851   82.8819   70.5838 H        1 UNK          0.0000
   90 H        84.8028   84.2680   69.8834 H        1 UNK          0.0000
@<TRIPOS>BOND
     1     1     8   1 
     2     1    11   1 
     3     1    17   1 
     4     1    19   1 
     5     2    11   1 
     6     2    14   1 
     7     2    21   1 
     8     2    24   1 
     9     3    45   1 
    10     3    47   1 
    11     4     5   1 
    12     4    41   1 
    13     6     7   1 
    14     6    43   1 
    15     8    49   1 
    16     9    10   1 
    17     9    56   1 
    18    12    13   1 
    19    12    61   1 
    20    14    70   1 
    21    15    16   1 
    22    15    64   1 
    23    17    18   1 
    24    19    20   1 
    25    21    22   1 
    26    23    81   2 
    27    24    25   1 
    28    26    82   2 
    29    27    45   1 
    30    27    52   1 
    31    27    53   1 
    32    28    58   1 
    33    28    63   ar
    34    28    66   ar
    35    29    53   2 
    36    29    55   1 
    37    30    52   ar
    38    30    79   ar
    39    31    32   1 
    40    31    67   ar
    41    31    68   ar
    42    33    34   1 
    43    33    66   1 
    44    33    82   am
    45    35    69   ar
    46    35    79   ar
    47    36    37   1 
    48    36    81   am
    49    36    82   am
    50    38    39   1 
    51    38    40   1 
    52    38    69   1 
    53    41    42   1 
    54    41    43   1 
    55    41    45   1 
    56    43    44   1 
    57    43    47   1 
    58    45    46   1 
    59    47    48   1 
    60    47    49   1 
    61    49    50   1 
    62    49    51   1 
    63    52    55   ar
    64    53    54   1 
    65    55    69   ar
    66    56    57   1 
    67    56    58   1 
    68    56    61   1 
    69    58    59   1 
    70    58    60   1 
    71    61    62   1 
    72    61    64   1 
    73    63    67   ar
    74    63    73   ar
    75    64    65   1 
    76    64    70   1 
    77    66    68   ar
    78    67    75   ar
    79    68    81   1 
    80    70    71   1 
    81    70    72   1 
    82    73    74   1 
    83    73    77   ar
    84    75    76   1 
    85    75    78   ar
    86    77    78   ar
    87    77    83   1 
    88    78    87   1 
    89    79    80   1 
    90    83    84   1 
    91    83    85   1 
    92    83    86   1 
    93    87    88   1 
    94    87    89   1 
    95    87    90   1 
 
