inp11.mol2
     Hgene          

 53 58  0  0  0  0               V2000
   93.5115   76.5930   71.3012 P   0  0  1  0  0
   92.0807   78.7218   72.6720 P   0  0  1  0  0
   94.3378   75.6639   74.2647 O   0  0  0  0  0
   93.0239   77.9317   76.3281 O   0  0  0  0  0
   95.2451   79.0328   75.1522 O   0  0  0  0  0
   95.1133   76.6609   71.4866 O   0  0  0  0  0
   89.0363   83.5266   69.5401 O   0  0  0  0  0
   92.8319   78.0551   71.4065 O   0  0  0  0  0
   89.5859   80.9312   68.9097 O   0  0  0  0  0
   92.4547   80.2902   72.8051 O   0  0  0  0  0
   90.0869   79.8808   71.4525 O   0  0  0  0  0
   93.2334   76.0312   69.8207 O   0  0  0  0  0
   92.8783   75.5417   72.3418 O   0  0  0  0  0
   90.4830   78.5540   72.5870 O   0  0  0  0  0
   87.5779   87.4081   74.8666 O   0  0  0  0  0
   92.5956   77.9809   73.9966 O   0  0  0  0  0
   91.5196   85.2681   74.7325 O   0  0  0  0  0
   94.0695   74.5258   76.3271 N   0  0  0  0  0
   88.0555   83.4515   72.1609 N   0  0  0  0  0
   93.8913   72.5419   77.4557 N   0  0  0  0  0
   96.5414   74.6275   76.3610 N   0  0  0  0  0
   86.3813   85.5721   73.0992 N   0  0  0  0  0
   89.8673   84.3981   73.5033 N   0  0  0  0  0
   97.5551   72.7325   77.4831 N   0  0  0  0  0
   89.5787   86.3863   74.8455 N   0  0  0  0  0
   96.2340   71.0265   78.4102 N   0  0  0  0  0
   94.1562   77.0604   76.2047 C   0  0  0  0  0
   95.1652   77.6055   75.1769 C   0  0  0  0  0
   93.6955   75.7203   75.5611 C   0  0  0  0  0
   94.6591   77.0054   73.8619 C   0  0  0  0  0
   95.7303   77.0063   72.7432 C   0  0  0  0  0
   95.3320   74.0911   76.6228 C   0  0  0  0  0
   93.2227   73.5407   76.8592 C   0  0  0  0  0
   95.1846   72.9077   77.2946 C   0  0  0  0  0
   89.8521   82.7933   70.4577 C   0  0  0  0  0
   88.9730   82.3633   71.6694 C   0  0  0  0  0
   90.5424   81.5812   69.7508 C   0  0  0  0  0
   86.7330   83.6239   71.6531 C   0  0  0  0  0
   91.1409   80.5541   70.7652 C   0  0  0  0  0
   88.5521   84.4308   73.0525 C   0  0  0  0  0
   85.9078   84.6754   72.1401 C   0  0  0  0  0
   87.7111   85.4736   73.5075 C   0  0  0  0  0
   96.3305   72.2171   77.7325 C   0  0  0  0  0
   92.1082   81.2337   71.7766 C   0  0  0  0  0
   86.1978   82.7599   70.6647 C   0  0  0  0  0
   84.6002   84.8483   71.6521 C   0  0  0  0  0
   84.8887   82.9346   70.1774 C   0  0  0  0  0
   84.0848   83.9840   70.6730 C   0  0  0  0  0
   97.5972   73.9098   76.8110 C   0  0  0  0  0
   88.2628   86.4954   74.4499 C   0  0  0  0  0
   90.3653   85.3517   74.3767 C   0  0  0  0  0
   84.3557   81.9765   69.1106 C   0  0  0  0  0
   82.6596   84.1970   70.1617 C   0  0  0  0  0
  1  6  1  0
  1  8  1  0
  1 12  1  0
  1 13  1  0
  2  8  1  0
  2 10  1  0
  2 14  1  0
  2 16  1  0
  3 29  1  0
  3 30  1  0
  4 27  1  0
  5 28  1  0
  6 31  1  0
  7 35  1  0
  9 37  1  0
 10 44  1  0
 11 39  1  0
 15 50  2  0
 17 51  2  0
 18 29  1  0
 18 32  1  0
 18 33  1  0
 19 36  1  0
 19 38  4  0
 19 40  4  0
 20 33  2  0
 20 34  1  0
 21 32  4  0
 21 49  4  0
 22 41  4  0
 22 42  4  0
 23 40  1  0
 23 51  1  0
 24 43  4  0
 24 49  4  0
 25 50  1  0
 25 51  1  0
 26 43  1  0
 27 28  1  0
 27 29  1  0
 28 30  1  0
 30 31  1  0
 32 34  4  0
 34 43  4  0
 35 36  1  0
 35 37  1  0
 37 39  1  0
 38 41  4  0
 38 45  4  0
 39 44  1  0
 40 42  4  0
 41 46  4  0
 42 50  1  0
 45 47  4  0
 46 48  4  0
 47 48  4  0
 47 52  1  0
 48 53  1  0
M  END
$$$$
