inp11.mol2
     Hgene          

 53 58  0  0  0  0               V2000
   93.3686   78.5658   74.8578 P   0  0  1  0  0
   93.0168   76.5365   72.7951 P   0  0  1  0  0
   94.6631   75.1252   75.3032 O   0  0  0  0  0
   96.1014   73.4272   77.5853 O   0  0  0  0  0
   97.9428   75.5278   76.7396 O   0  0  0  0  0
   94.5126   78.1989   75.9318 O   0  0  0  0  0
   89.0416   81.0210   73.6971 O   0  0  0  0  0
   92.8098   77.2131   74.2416 O   0  0  0  0  0
   89.8482   80.3083   70.1382 O   0  0  0  0  0
   91.8547   76.8795   71.7284 O   0  0  0  0  0
   90.1016   78.5065   73.3147 O   0  0  0  0  0
   92.1571   79.2598   75.6441 O   0  0  0  0  0
   93.8886   79.5405   73.6910 O   0  0  0  0  0
   94.4612   76.6639   72.1320 O   0  0  0  0  0
   83.0322   84.3027   73.0912 O   0  0  0  0  0
   92.8556   75.0047   73.1051 O   0  0  0  0  0
   84.1332   81.1783   69.9653 O   0  0  0  0  0
   94.8309   72.8778   74.3765 N   0  0  0  0  0
   87.6730   83.1800   72.4293 N   0  0  0  0  0
   94.1557   71.1848   72.9714 N   0  0  0  0  0
   96.4151   73.9916   72.7915 N   0  0  0  0  0
   85.7354   84.7080   73.8908 N   0  0  0  0  0
   85.8248   82.1689   71.0846 N   0  0  0  0  0
   96.3126   73.0665   70.5169 N   0  0  0  0  0
   83.4869   82.7746   71.4811 N   0  0  0  0  0
   94.9350   71.2749   70.0116 N   0  0  0  0  0
   96.3200   73.7154   76.1930 C   0  0  0  0  0
   96.8368   75.1438   75.9226 C   0  0  0  0  0
   94.9159   73.7217   75.5760 C   0  0  0  0  0
   95.5466   75.9437   76.0989 C   0  0  0  0  0
   95.6573   77.4001   75.5661 C   0  0  0  0  0
   95.4779   73.0496   73.1899 C   0  0  0  0  0
   94.1132   71.6856   74.2190 C   0  0  0  0  0
   94.9778   72.0641   72.3356 C   0  0  0  0  0
   88.8007   80.8955   72.2875 C   0  0  0  0  0
   88.6057   82.3094   71.6686 C   0  0  0  0  0
   89.9849   80.1795   71.5604 C   0  0  0  0  0
   88.0703   84.0327   73.5129 C   0  0  0  0  0
   90.1669   78.6729   71.9039 C   0  0  0  0  0
   86.2723   83.0960   72.0509 C   0  0  0  0  0
   87.1070   84.7837   74.2888 C   0  0  0  0  0
   85.3584   83.9223   72.7938 C   0  0  0  0  0
   95.4039   72.1225   70.9529 C   0  0  0  0  0
   91.5232   78.1946   71.3005 C   0  0  0  0  0
   89.4683   84.2029   73.8987 C   0  0  0  0  0
   87.4707   85.6057   75.3809 C   0  0  0  0  0
   89.8431   85.0802   74.9460 C   0  0  0  0  0
   88.8600   85.7988   75.7133 C   0  0  0  0  0
   96.7699   73.9756   71.4515 C   0  0  0  0  0
   83.8680   83.7257   72.4539 C   0  0  0  0  0
   84.4463   82.0162   70.7677 C   0  0  0  0  0
   91.3551   85.2524   75.1963 C   0  0  0  0  0
   89.2293   86.7786   76.8216 C   0  0  0  0  0
  1  6  1  0
  1  8  1  0
  1 12  1  0
  1 13  1  0
  2  8  1  0
  2 10  1  0
  2 14  1  0
  2 16  1  0
  3 29  1  0
  3 30  1  0
  4 27  1  0
  5 28  1  0
  6 31  1  0
  7 35  1  0
  9 37  1  0
 10 44  1  0
 11 39  1  0
 15 50  2  0
 17 51  2  0
 18 29  1  0
 18 32  1  0
 18 33  1  0
 19 36  1  0
 19 38  4  0
 19 40  4  0
 20 33  2  0
 20 34  1  0
 21 32  4  0
 21 49  4  0
 22 41  4  0
 22 42  4  0
 23 40  1  0
 23 51  1  0
 24 43  4  0
 24 49  4  0
 25 50  1  0
 25 51  1  0
 26 43  1  0
 27 28  1  0
 27 29  1  0
 28 30  1  0
 30 31  1  0
 32 34  4  0
 34 43  4  0
 35 36  1  0
 35 37  1  0
 37 39  1  0
 38 41  4  0
 38 45  4  0
 39 44  1  0
 40 42  4  0
 41 46  4  0
 42 50  1  0
 45 47  4  0
 46 48  4  0
 47 48  4  0
 47 52  1  0
 48 53  1  0
M  END
$$$$
