inp11.mol2
     Hgene          

 53 58  0  0  0  0               V2000
   89.4008   84.4775   74.5274 P   0  0  1  0  0
   89.7299   81.5980   73.7926 P   0  0  1  0  0
   87.3152   84.4575   71.9541 O   0  0  0  0  0
   87.2317   81.2980   70.4917 O   0  0  0  0  0
   89.6320   82.7539   69.7728 O   0  0  0  0  0
   89.6723   85.5243   73.2973 O   0  0  0  0  0
   94.8129   78.0119   76.6459 O   0  0  0  0  0
   90.1930   83.0734   74.3064 O   0  0  0  0  0
   93.3302   80.1625   77.4737 O   0  0  0  0  0
   90.9685   80.7249   73.1804 O   0  0  0  0  0
   91.2571   79.9764   75.8210 O   0  0  0  0  0
   89.9546   85.1817   75.8678 O   0  0  0  0  0
   87.8194   84.2707   74.7595 O   0  0  0  0  0
   88.8759   80.8227   74.8821 O   0  0  0  0  0
   94.7161   72.4759   72.6167 O   0  0  0  0  0
   88.6028   81.5871   72.6982 O   0  0  0  0  0
   93.4812   76.4096   70.6634 O   0  0  0  0  0
   85.2654   84.1003   71.1307 N   0  0  0  0  0
   93.0788   76.2299   75.3268 N   0  0  0  0  0
   83.1077   84.6362   70.8825 N   0  0  0  0  0
   86.1988   85.6826   69.4904 N   0  0  0  0  0
   93.6131   73.3720   75.2183 N   0  0  0  0  0
   93.3652   76.3372   72.8850 N   0  0  0  0  0
   84.4380   86.7231   68.1626 N   0  0  0  0  0
   94.1246   74.4213   71.5654 N   0  0  0  0  0
   82.1737   86.5317   68.8068 N   0  0  0  0  0
   87.1474   82.7155   70.2790 C   0  0  0  0  0
   88.4853   83.5046   70.1897 C   0  0  0  0  0
   86.4603   83.3964   71.5049 C   0  0  0  0  0
   88.6377   84.0898   71.5997 C   0  0  0  0  0
   89.6136   85.2547   71.8598 C   0  0  0  0  0
   85.2008   85.0602   70.2044 C   0  0  0  0  0
   83.9937   84.0460   71.6332 C   0  0  0  0  0
   83.8561   85.3125   70.0339 C   0  0  0  0  0
   93.9444   78.6033   75.6689 C   0  0  0  0  0
   92.7169   77.6806   75.4665 C   0  0  0  0  0
   93.5880   80.0870   76.0539 C   0  0  0  0  0
   92.9399   75.4140   76.5103 C   0  0  0  0  0
   92.3511   80.6749   75.2898 C   0  0  0  0  0
   93.4482   75.6170   74.1178 C   0  0  0  0  0
   93.2173   73.9770   76.4050 C   0  0  0  0  0
   93.8178   74.1971   74.0477 C   0  0  0  0  0
   83.4719   86.2057   69.0018 C   0  0  0  0  0
   92.3033   80.5168   73.7330 C   0  0  0  0  0
   92.5069   75.9978   77.7137 C   0  0  0  0  0
   93.0843   73.1900   77.5953 C   0  0  0  0  0
   92.4302   75.2184   78.8775 C   0  0  0  0  0
   92.7897   73.8406   78.8042 C   0  0  0  0  0
   85.7684   86.4522   68.4531 C   0  0  0  0  0
   94.2915   73.6266   72.7340 C   0  0  0  0  0
   93.6600   75.7515   71.6699 C   0  0  0  0  0
   91.9724   75.9439   80.1243 C   0  0  0  0  0
   92.8786   73.0264   80.0691 C   0  0  0  0  0
  1  6  1  0
  1  8  1  0
  1 12  1  0
  1 13  1  0
  2  8  1  0
  2 10  1  0
  2 14  1  0
  2 16  1  0
  3 29  1  0
  3 30  1  0
  4 27  1  0
  5 28  1  0
  6 31  1  0
  7 35  1  0
  9 37  1  0
 10 44  1  0
 11 39  1  0
 15 50  2  0
 17 51  2  0
 18 29  1  0
 18 32  1  0
 18 33  1  0
 19 36  1  0
 19 38  4  0
 19 40  4  0
 20 33  2  0
 20 34  1  0
 21 32  4  0
 21 49  4  0
 22 41  4  0
 22 42  4  0
 23 40  1  0
 23 51  1  0
 24 43  4  0
 24 49  4  0
 25 50  1  0
 25 51  1  0
 26 43  1  0
 27 28  1  0
 27 29  1  0
 28 30  1  0
 30 31  1  0
 32 34  4  0
 34 43  4  0
 35 36  1  0
 35 37  1  0
 37 39  1  0
 38 41  4  0
 38 45  4  0
 39 44  1  0
 40 42  4  0
 41 46  4  0
 42 50  1  0
 45 47  4  0
 46 48  4  0
 47 48  4  0
 47 52  1  0
 48 53  1  0
M  END
$$$$
