inp11.mol2
     Hgene          

 53 58  0  0  0  0               V2000
   91.7632   78.4729   69.3117 P   0  0  1  0  0
   92.2159   77.8021   72.1050 P   0  0  1  0  0
   89.0950   79.8900   70.4073 O   0  0  0  0  0
   89.0271   79.2881   73.6876 O   0  0  0  0  0
   88.2748   76.9944   72.3831 O   0  0  0  0  0
   90.4536   77.7739   68.6784 O   0  0  0  0  0
   95.7194   75.7472   74.8217 O   0  0  0  0  0
   92.3921   77.5938   70.5127 O   0  0  0  0  0
   96.8178   75.7847   71.9902 O   0  0  0  0  0
   92.0527   76.3800   72.8591 O   0  0  0  0  0
   94.6510   77.3026   72.8966 O   0  0  0  0  0
   92.8627   78.5578   68.1416 O   0  0  0  0  0
   91.4228   79.9795   69.7625 O   0  0  0  0  0
   93.4440   78.6165   72.7504 O   0  0  0  0  0
   96.8752   71.1512   79.6286 O   0  0  0  0  0
   90.8722   78.6418   72.3461 O   0  0  0  0  0
   98.5625   70.4950   75.5229 O   0  0  0  0  0
   87.8049   81.6560   71.3226 N   0  0  0  0  0
   94.8244   73.2955   75.8339 N   0  0  0  0  0
   86.9461   83.7666   71.1019 N   0  0  0  0  0
   85.9478   80.4940   70.1725 N   0  0  0  0  0
   94.8467   72.8455   78.6582 N   0  0  0  0  0
   96.7773   71.8329   75.6680 N   0  0  0  0  0
   84.2136   82.0035   69.4034 N   0  0  0  0  0
   97.7710   70.7793   77.6021 N   0  0  0  0  0
   84.3766   84.3183   69.7644 N   0  0  0  0  0
   88.1480   79.4709   72.5694 C   0  0  0  0  0
   88.1337   78.2235   71.6664 C   0  0  0  0  0
   88.7381   80.5677   71.6361 C   0  0  0  0  0
   89.2907   78.4970   70.7012 C   0  0  0  0  0
   89.2186   77.6432   69.4109 C   0  0  0  0  0
   86.6120   81.5615   70.6605 C   0  0  0  0  0
   87.9638   83.0285   71.5706 C   0  0  0  0  0
   86.1314   82.8382   70.5482 C   0  0  0  0  0
   95.8516   74.6481   73.9162 C   0  0  0  0  0
   94.8583   73.5283   74.3465 C   0  0  0  0  0
   95.6389   75.1099   72.4374 C   0  0  0  0  0
   93.9308   73.9972   76.6973 C   0  0  0  0  0
   94.3978   76.0448   72.2715 C   0  0  0  0  0
   95.7987   72.4617   76.4303 C   0  0  0  0  0
   93.9450   73.7520   78.0986 C   0  0  0  0  0
   95.7963   72.2491   77.8291 C   0  0  0  0  0
   84.9001   83.0561   69.9018 C   0  0  0  0  0
   93.1039   75.3987   72.8448 C   0  0  0  0  0
   93.0033   74.9448   76.1959 C   0  0  0  0  0
   93.0626   74.4323   78.9567 C   0  0  0  0  0
   92.1208   75.6248   77.0564 C   0  0  0  0  0
   92.1497   75.3680   78.4443 C   0  0  0  0  0
   84.7723   80.7782   69.5644 C   0  0  0  0  0
   96.8384   71.3625   78.4328 C   0  0  0  0  0
   97.7371   71.0138   76.2409 C   0  0  0  0  0
   91.1378   76.6385   76.4679 C   0  0  0  0  0
   91.2028   76.0920   79.4020 C   0  0  0  0  0
  1  6  1  0
  1  8  1  0
  1 12  1  0
  1 13  1  0
  2  8  1  0
  2 10  1  0
  2 14  1  0
  2 16  1  0
  3 29  1  0
  3 30  1  0
  4 27  1  0
  5 28  1  0
  6 31  1  0
  7 35  1  0
  9 37  1  0
 10 44  1  0
 11 39  1  0
 15 50  2  0
 17 51  2  0
 18 29  1  0
 18 32  1  0
 18 33  1  0
 19 36  1  0
 19 38  4  0
 19 40  4  0
 20 33  2  0
 20 34  1  0
 21 32  4  0
 21 49  4  0
 22 41  4  0
 22 42  4  0
 23 40  1  0
 23 51  1  0
 24 43  4  0
 24 49  4  0
 25 50  1  0
 25 51  1  0
 26 43  1  0
 27 28  1  0
 27 29  1  0
 28 30  1  0
 30 31  1  0
 32 34  4  0
 34 43  4  0
 35 36  1  0
 35 37  1  0
 37 39  1  0
 38 41  4  0
 38 45  4  0
 39 44  1  0
 40 42  4  0
 41 46  4  0
 42 50  1  0
 45 47  4  0
 46 48  4  0
 47 48  4  0
 47 52  1  0
 48 53  1  0
M  END
$$$$
