inp11.mol2
     Hgene          

 53 58  0  0  0  0               V2000
   93.1969   81.3489   75.7794 P   0  0  1  0  0
   91.4449   80.1733   73.6688 P   0  0  1  0  0
   90.5126   83.1800   76.2099 O   0  0  0  0  0
   88.1691   82.6734   73.7736 O   0  0  0  0  0
   90.2372   84.2247   72.7950 O   0  0  0  0  0
   93.3894   82.9675   75.6877 O   0  0  0  0  0
   95.3905   76.9436   72.9952 O   0  0  0  0  0
   92.8378   80.6855   74.3408 O   0  0  0  0  0
   95.2952   78.4655   70.4129 O   0  0  0  0  0
   91.4936   80.2444   72.0332 O   0  0  0  0  0
   92.2428   77.6023   72.2869 O   0  0  0  0  0
   94.5926   80.7428   76.3022 O   0  0  0  0  0
   92.1354   80.9638   76.9228 O   0  0  0  0  0
   90.9733   78.7533   74.2198 O   0  0  0  0  0
   96.5702   70.3891   73.8430 O   0  0  0  0  0
   90.1575   80.9658   74.1036 O   0  0  0  0  0
   96.1181   71.8904   69.6111 O   0  0  0  0  0
   88.6906   83.6272   77.2382 N   0  0  0  0  0
   94.1335   74.4050   73.0867 N   0  0  0  0  0
   87.9208   83.9153   79.3164 N   0  0  0  0  0
   89.2579   86.0535   76.7936 N   0  0  0  0  0
   94.7922   72.2961   74.9468 N   0  0  0  0  0
   95.1193   73.0822   71.2355 N   0  0  0  0  0
   87.9310   87.5262   78.2353 N   0  0  0  0  0
   96.3371   71.0626   71.6731 N   0  0  0  0  0
   86.9610   86.6659   80.2178 N   0  0  0  0  0
   88.6764   83.6427   74.6925 C   0  0  0  0  0
   90.0202   84.2444   74.2109 C   0  0  0  0  0
   89.1041   82.9746   76.0350 C   0  0  0  0  0
   91.0781   83.4035   74.9343 C   0  0  0  0  0
   92.5191   83.9452   75.0413 C   0  0  0  0  0
   88.7765   84.9665   77.5078 C   0  0  0  0  0
   88.2399   83.0033   78.3861 C   0  0  0  0  0
   88.1368   85.1135   78.7134 C   0  0  0  0  0
   94.8457   76.4827   71.7489 C   0  0  0  0  0
   93.7638   75.4157   72.0509 C   0  0  0  0  0
   94.2267   77.6612   70.9173 C   0  0  0  0  0
   93.8156   74.5528   74.5181 C   0  0  0  0  0
   93.2370   78.4931   71.7989 C   0  0  0  0  0
   94.7899   73.2726   72.6263 C   0  0  0  0  0
   94.1306   73.4174   75.4079 C   0  0  0  0  0
   95.1896   72.2357   73.5622 C   0  0  0  0  0
   87.6990   86.4552   79.0852 C   0  0  0  0  0
   92.5141   79.7034   71.1415 C   0  0  0  0  0
   93.2417   75.7223   75.0636 C   0  0  0  0  0
   93.7676   73.5078   76.7984 C   0  0  0  0  0
   92.8521   75.8080   76.4483 C   0  0  0  0  0
   93.1337   74.6676   77.2853 C   0  0  0  0  0
   88.8542   87.3022   77.2352 C   0  0  0  0  0
   96.0587   71.1615   73.0584 C   0  0  0  0  0
   95.8531   72.0089   70.7884 C   0  0  0  0  0
   92.1640   77.0756   76.9538 C   0  0  0  0  0
   92.7896   74.7293   78.7565 C   0  0  0  0  0
  1  6  1  0
  1  8  1  0
  1 12  1  0
  1 13  1  0
  2  8  1  0
  2 10  1  0
  2 14  1  0
  2 16  1  0
  3 29  1  0
  3 30  1  0
  4 27  1  0
  5 28  1  0
  6 31  1  0
  7 35  1  0
  9 37  1  0
 10 44  1  0
 11 39  1  0
 15 50  2  0
 17 51  2  0
 18 29  1  0
 18 32  1  0
 18 33  1  0
 19 36  1  0
 19 38  4  0
 19 40  4  0
 20 33  2  0
 20 34  1  0
 21 32  4  0
 21 49  4  0
 22 41  4  0
 22 42  4  0
 23 40  1  0
 23 51  1  0
 24 43  4  0
 24 49  4  0
 25 50  1  0
 25 51  1  0
 26 43  1  0
 27 28  1  0
 27 29  1  0
 28 30  1  0
 30 31  1  0
 32 34  4  0
 34 43  4  0
 35 36  1  0
 35 37  1  0
 37 39  1  0
 38 41  4  0
 38 45  4  0
 39 44  1  0
 40 42  4  0
 41 46  4  0
 42 50  1  0
 45 47  4  0
 46 48  4  0
 47 48  4  0
 47 52  1  0
 48 53  1  0
M  END
$$$$
