@<TRIPOS>COMMENT
   inp11.mol2              9    of   10
                  SCORE =  -286.3380
               dG-SCORE =    -7.0009
      LIGAND_EFFICIENCY =    -0.5403
  NUMBER_OF_HEAVY_ATOMS =         53
                    ASA =  -143.3801
                    ELE =     0.0000
                    HYD =  -142.9579
                    VDW =     0.0000
                   RMSD =    30.9668
 MOLECULAR_WEIGHT = 789.59
@<TRIPOS>MOLECULE
inp11.mol2                                                                      
   90   95    0    0    0
SMALL       
GASTEIGER      
 
@<TRIPOS>ATOM
    1 P        92.6623   79.3468   75.5738 P.3      1 UNK          0.0000
    2 P        94.4469   79.4994   73.2826 P.3      1 UNK          0.0000
    3 O        93.8264   76.3679   75.8885 O.3      1 UNK          0.0000
    4 O        95.9152   75.9324   73.3244 O.3      1 UNK          0.0000
    5 H        96.6227   75.3207   73.0515 H        1 UNK          0.0000
    6 O        93.3479   75.7263   72.3785 O.3      1 UNK          0.0000
    7 H        93.0647   74.8738   71.9978 H        1 UNK          0.0000
    8 O        91.4808   78.2600   75.4074 O.3      1 UNK          0.0000
    9 O        91.7086   82.2169   70.0659 O.3      1 UNK          0.0000
   10 H        92.4093   81.8379   69.4922 H        1 UNK          0.0000
   11 O        93.1506   79.9267   74.1469 O.3      1 UNK          0.0000
   12 O        94.5710   83.2253   69.9447 O.3      1 UNK          0.0000
   13 H        94.2801   82.5163   69.3385 H        1 UNK          0.0000
   14 O        94.0975   79.4491   71.7037 O.3      1 UNK          0.0000
   15 O        95.2318   81.8467   72.4579 O.3      1 UNK          0.0000
   16 H        95.8185   82.3382   71.8485 H        1 UNK          0.0000
   17 O        92.0563   80.5739   76.4177 O.3      1 UNK          0.0000
   18 H        91.2813   80.9161   75.9387 H        1 UNK          0.0000
   19 O        93.8713   78.7226   76.4327 O.3      1 UNK          0.0000
   20 H        94.5009   79.4331   76.6423 H        1 UNK          0.0000
   21 O        95.6926   80.4874   73.5277 O.3      1 UNK          0.0000
   22 H        95.8689   80.5396   74.4824 H        1 UNK          0.0000
   23 O        86.0410   85.8051   69.3114 O.2      1 UNK          0.0000
   24 O        94.8770   78.0238   73.7367 O.3      1 UNK          0.0000
   25 H        94.1305   77.4182   73.5739 H        1 UNK          0.0000
   26 O        89.9924   87.9314   69.3174 O.2      1 UNK          0.0000
   27 N        95.3534   74.7100   76.6235 N.ar     1 UNK          0.0000
   28 N        89.8432   83.7715   71.4588 N.ar     1 UNK          0.0000
   29 N        96.3254   73.5814   78.3621 N.ar     1 UNK          0.0000
   30 N        93.3814   73.2300   76.4178 N.ar     1 UNK          0.0000
   31 N        87.0758   83.6191   70.7528 N.ar     1 UNK          0.0000
   32 H        86.0840   83.6002   70.5222 H        1 UNK          0.0000
   33 N        89.9244   85.9450   70.3409 N.am     1 UNK          0.0000
   34 H        90.9047   86.0477   70.5654 H        1 UNK          0.0000
   35 N        93.3857   71.4126   78.0224 N.ar     1 UNK          0.0000
   36 N        87.9888   86.9244   69.2770 N.am     1 UNK          0.0000
   37 H        87.5825   87.6927   68.7583 H        1 UNK          0.0000
   38 N        95.1331   71.1713   79.5728 N.pl3    1 UNK          0.0000
   39 H        94.7861   70.2446   79.7719 H        1 UNK          0.0000
   40 H        96.0968   71.3795   79.7934 H        1 UNK          0.0000
   41 C        95.0047   75.2014   74.1570 C.3      1 UNK          0.0000
   42 H        95.2044   74.1231   74.1122 H        1 UNK          0.0000
   43 C        93.5431   75.5028   73.7771 C.3      1 UNK          0.0000
   44 H        92.9140   74.6670   74.1100 H        1 UNK          0.0000
   45 C        95.1035   75.7439   75.6124 C.3      1 UNK          0.0000
   46 H        95.9056   76.4897   75.6857 H        1 UNK          0.0000
   47 C        93.2210   76.7290   74.6362 C.3      1 UNK          0.0000
   48 H        93.7055   77.6194   74.2141 H        1 UNK          0.0000
   49 C        91.7001   76.9686   74.8049 C.3      1 UNK          0.0000
   50 H        91.2269   76.9483   73.8150 H        1 UNK          0.0000
   51 H        91.2594   76.1658   75.4091 H        1 UNK          0.0000
   52 C        94.5505   73.6500   76.9428 C.ar     1 UNK          0.0000
   53 C        96.4279   74.6231   77.5227 C.ar     1 UNK          0.0000
   54 H        97.2336   75.3475   77.5193 H        1 UNK          0.0000
   55 C        95.1624   73.0024   77.9819 C.ar     1 UNK          0.0000
   56 C        92.2421   83.4164   70.6335 C.3      1 UNK          0.0000
   57 H        92.2443   84.2002   69.8633 H        1 UNK          0.0000
   58 C        91.3080   83.8755   71.7921 C.3      1 UNK          0.0000
   59 H        91.5556   84.9151   72.0506 H        1 UNK          0.0000
   60 H        91.5396   83.3036   72.6990 H        1 UNK          0.0000
   61 C        93.7218   83.2095   71.0951 C.3      1 UNK          0.0000
   62 H        93.9977   84.0424   71.7572 H        1 UNK          0.0000
   63 C        89.0814   82.5933   71.7200 C.ar     1 UNK          0.0000
   64 C        93.9247   81.8768   71.8857 C.3      1 UNK          0.0000
   65 H        93.1866   81.8374   72.6972 H        1 UNK          0.0000
   66 C        89.2184   84.8133   70.7345 C.ar     1 UNK          0.0000
   67 C        87.7023   82.5384   71.3752 C.ar     1 UNK          0.0000
   68 C        87.8484   84.7229   70.3928 C.ar     1 UNK          0.0000
   69 C        94.5580   71.8552   78.5299 C.ar     1 UNK          0.0000
   70 C        93.6907   80.6281   70.9877 C.3      1 UNK          0.0000
   71 H        94.2499   80.7230   70.0489 H        1 UNK          0.0000
   72 H        92.6254   80.5485   70.7379 H        1 UNK          0.0000
   73 C        89.6613   81.4537   72.3321 C.ar     1 UNK          0.0000
   74 H        90.7120   81.4279   72.6006 H        1 UNK          0.0000
   75 C        86.9411   81.3850   71.6362 C.ar     1 UNK          0.0000
   76 H        85.8911   81.3478   71.3553 H        1 UNK          0.0000
   77 C        88.8978   80.3000   72.5926 C.ar     1 UNK          0.0000
   78 C        87.5304   80.2644   72.2432 C.ar     1 UNK          0.0000
   79 C        92.8586   72.1221   76.9937 C.ar     1 UNK          0.0000
   80 H        91.9146   71.7620   76.5883 H        1 UNK          0.0000
   81 C        87.2138   85.8394   69.6265 C.2      1 UNK          0.0000
   82 C        89.3234   86.9722   69.6310 C.2      1 UNK          0.0000
   83 C        89.5684   79.0953   73.2551 C.3      1 UNK          0.0000
   84 H        89.5184   78.2098   72.6087 H        1 UNK          0.0000
   85 H        90.6261   79.2987   73.4659 H        1 UNK          0.0000
   86 H        89.0978   78.8359   74.2115 H        1 UNK          0.0000
   87 C        86.6773   79.0247   72.5144 C.3      1 UNK          0.0000
   88 H        85.6433   79.1722   72.1764 H        1 UNK          0.0000
   89 H        86.6504   78.7880   73.5857 H        1 UNK          0.0000
   90 H        87.0640   78.1388   71.9947 H        1 UNK          0.0000
@<TRIPOS>BOND
     1     1     8   1 
     2     1    11   1 
     3     1    17   1 
     4     1    19   1 
     5     2    11   1 
     6     2    14   1 
     7     2    21   1 
     8     2    24   1 
     9     3    45   1 
    10     3    47   1 
    11     4     5   1 
    12     4    41   1 
    13     6     7   1 
    14     6    43   1 
    15     8    49   1 
    16     9    10   1 
    17     9    56   1 
    18    12    13   1 
    19    12    61   1 
    20    14    70   1 
    21    15    16   1 
    22    15    64   1 
    23    17    18   1 
    24    19    20   1 
    25    21    22   1 
    26    23    81   2 
    27    24    25   1 
    28    26    82   2 
    29    27    45   1 
    30    27    52   1 
    31    27    53   1 
    32    28    58   1 
    33    28    63   ar
    34    28    66   ar
    35    29    53   2 
    36    29    55   1 
    37    30    52   ar
    38    30    79   ar
    39    31    32   1 
    40    31    67   ar
    41    31    68   ar
    42    33    34   1 
    43    33    66   1 
    44    33    82   am
    45    35    69   ar
    46    35    79   ar
    47    36    37   1 
    48    36    81   am
    49    36    82   am
    50    38    39   1 
    51    38    40   1 
    52    38    69   1 
    53    41    42   1 
    54    41    43   1 
    55    41    45   1 
    56    43    44   1 
    57    43    47   1 
    58    45    46   1 
    59    47    48   1 
    60    47    49   1 
    61    49    50   1 
    62    49    51   1 
    63    52    55   ar
    64    53    54   1 
    65    55    69   ar
    66    56    57   1 
    67    56    58   1 
    68    56    61   1 
    69    58    59   1 
    70    58    60   1 
    71    61    62   1 
    72    61    64   1 
    73    63    67   ar
    74    63    73   ar
    75    64    65   1 
    76    64    70   1 
    77    66    68   ar
    78    67    75   ar
    79    68    81   1 
    80    70    71   1 
    81    70    72   1 
    82    73    74   1 
    83    73    77   ar
    84    75    76   1 
    85    75    78   ar
    86    77    78   ar
    87    77    83   1 
    88    78    87   1 
    89    79    80   1 
    90    83    84   1 
    91    83    85   1 
    92    83    86   1 
    93    87    88   1 
    94    87    89   1 
    95    87    90   1 
 
