inp11.mol2
     Hgene          

 53 58  0  0  0  0               V2000
   92.6623   79.3468   75.5738 P   0  0  1  0  0
   94.4469   79.4994   73.2826 P   0  0  1  0  0
   93.8264   76.3679   75.8885 O   0  0  0  0  0
   95.9152   75.9324   73.3244 O   0  0  0  0  0
   93.3479   75.7263   72.3785 O   0  0  0  0  0
   91.4808   78.2600   75.4074 O   0  0  0  0  0
   91.7086   82.2169   70.0659 O   0  0  0  0  0
   93.1506   79.9267   74.1469 O   0  0  0  0  0
   94.5710   83.2253   69.9447 O   0  0  0  0  0
   94.0975   79.4491   71.7037 O   0  0  0  0  0
   95.2318   81.8467   72.4579 O   0  0  0  0  0
   92.0563   80.5739   76.4177 O   0  0  0  0  0
   93.8713   78.7226   76.4327 O   0  0  0  0  0
   95.6926   80.4874   73.5277 O   0  0  0  0  0
   86.0410   85.8051   69.3114 O   0  0  0  0  0
   94.8770   78.0238   73.7367 O   0  0  0  0  0
   89.9924   87.9314   69.3174 O   0  0  0  0  0
   95.3534   74.7100   76.6235 N   0  0  0  0  0
   89.8432   83.7715   71.4588 N   0  0  0  0  0
   96.3254   73.5814   78.3621 N   0  0  0  0  0
   93.3814   73.2300   76.4178 N   0  0  0  0  0
   87.0758   83.6191   70.7528 N   0  0  0  0  0
   89.9244   85.9450   70.3409 N   0  0  0  0  0
   93.3857   71.4126   78.0224 N   0  0  0  0  0
   87.9888   86.9244   69.2770 N   0  0  0  0  0
   95.1331   71.1713   79.5728 N   0  0  0  0  0
   95.0047   75.2014   74.1570 C   0  0  0  0  0
   93.5431   75.5028   73.7771 C   0  0  0  0  0
   95.1035   75.7439   75.6124 C   0  0  0  0  0
   93.2210   76.7290   74.6362 C   0  0  0  0  0
   91.7001   76.9686   74.8049 C   0  0  0  0  0
   94.5505   73.6500   76.9428 C   0  0  0  0  0
   96.4279   74.6231   77.5227 C   0  0  0  0  0
   95.1624   73.0024   77.9819 C   0  0  0  0  0
   92.2421   83.4164   70.6335 C   0  0  0  0  0
   91.3080   83.8755   71.7921 C   0  0  0  0  0
   93.7218   83.2095   71.0951 C   0  0  0  0  0
   89.0814   82.5933   71.7200 C   0  0  0  0  0
   93.9247   81.8768   71.8857 C   0  0  0  0  0
   89.2184   84.8133   70.7345 C   0  0  0  0  0
   87.7023   82.5384   71.3752 C   0  0  0  0  0
   87.8484   84.7229   70.3928 C   0  0  0  0  0
   94.5580   71.8552   78.5299 C   0  0  0  0  0
   93.6907   80.6281   70.9877 C   0  0  0  0  0
   89.6613   81.4537   72.3321 C   0  0  0  0  0
   86.9411   81.3850   71.6362 C   0  0  0  0  0
   88.8978   80.3000   72.5926 C   0  0  0  0  0
   87.5304   80.2644   72.2432 C   0  0  0  0  0
   92.8586   72.1221   76.9937 C   0  0  0  0  0
   87.2138   85.8394   69.6265 C   0  0  0  0  0
   89.3234   86.9722   69.6310 C   0  0  0  0  0
   89.5684   79.0953   73.2551 C   0  0  0  0  0
   86.6773   79.0247   72.5144 C   0  0  0  0  0
  1  6  1  0
  1  8  1  0
  1 12  1  0
  1 13  1  0
  2  8  1  0
  2 10  1  0
  2 14  1  0
  2 16  1  0
  3 29  1  0
  3 30  1  0
  4 27  1  0
  5 28  1  0
  6 31  1  0
  7 35  1  0
  9 37  1  0
 10 44  1  0
 11 39  1  0
 15 50  2  0
 17 51  2  0
 18 29  1  0
 18 32  1  0
 18 33  1  0
 19 36  1  0
 19 38  4  0
 19 40  4  0
 20 33  2  0
 20 34  1  0
 21 32  4  0
 21 49  4  0
 22 41  4  0
 22 42  4  0
 23 40  1  0
 23 51  1  0
 24 43  4  0
 24 49  4  0
 25 50  1  0
 25 51  1  0
 26 43  1  0
 27 28  1  0
 27 29  1  0
 28 30  1  0
 30 31  1  0
 32 34  4  0
 34 43  4  0
 35 36  1  0
 35 37  1  0
 37 39  1  0
 38 41  4  0
 38 45  4  0
 39 44  1  0
 40 42  4  0
 41 46  4  0
 42 50  1  0
 45 47  4  0
 46 48  4  0
 47 48  4  0
 47 52  1  0
 48 53  1  0
M  END
$$$$
