inp11.mol2
     Hgene          

 53 58  0  0  0  0               V2000
   92.0177   75.9510   71.1004 P   0  0  1  0  0
   90.5904   78.0874   72.4629 P   0  0  1  0  0
   93.2859   75.3737   73.9963 O   0  0  0  0  0
   92.0488   77.7230   76.0155 O   0  0  0  0  0
   94.0013   78.8705   74.4665 O   0  0  0  0  0
   93.6181   76.1564   71.0655 O   0  0  0  0  0
   87.1043   81.3536   71.4350 O   0  0  0  0  0
   91.2323   77.3614   71.1703 O   0  0  0  0  0
   87.4619   79.7340   68.8905 O   0  0  0  0  0
   90.8405   79.6851   72.4117 O   0  0  0  0  0
   88.3665   78.9717   71.4245 O   0  0  0  0  0
   91.6063   75.2311   69.7229 O   0  0  0  0  0
   91.6134   74.9593   72.3012 O   0  0  0  0  0
   89.0153   77.7928   72.6050 O   0  0  0  0  0
   85.4385   87.8732   71.9690 O   0  0  0  0  0
   91.3294   77.5171   73.7657 O   0  0  0  0  0
   86.1062   86.1120   67.8963 O   0  0  0  0  0
   93.3778   74.4207   76.1652 N   0  0  0  0  0
   88.1762   83.9390   71.4888 N   0  0  0  0  0
   93.5152   72.5459   77.4719 N   0  0  0  0  0
   95.8162   74.7105   75.8625 N   0  0  0  0  0
   87.0220   85.9063   73.2144 N   0  0  0  0  0
   87.0962   85.0719   69.6099 N   0  0  0  0  0
   97.1231   73.0129   76.9972 N   0  0  0  0  0
   85.7311   87.0441   69.9015 N   0  0  0  0  0
   96.0816   71.3087   78.2327 N   0  0  0  0  0
   93.2281   76.9314   75.8176 C   0  0  0  0  0
   94.0493   77.4501   74.6226 C   0  0  0  0  0
   92.8085   75.5052   75.3569 C   0  0  0  0  0
   93.4367   76.6910   73.4421 C   0  0  0  0  0
   94.3552   76.6655   72.1953 C   0  0  0  0  0
   94.7003   74.1123   76.3269 C   0  0  0  0  0
   92.6930   73.4302   76.8866 C   0  0  0  0  0
   94.7415   72.9907   77.1103 C   0  0  0  0  0
   87.7572   81.7501   70.2258 C   0  0  0  0  0
   88.7475   82.9069   70.5528 C   0  0  0  0  0
   88.4561   80.5313   69.5392 C   0  0  0  0  0
   88.3031   83.8388   72.9067 C   0  0  0  0  0
   89.2638   79.6536   70.5488 C   0  0  0  0  0
   87.3629   84.9739   70.9712 C   0  0  0  0  0
   87.7349   84.8330   73.7509 C   0  0  0  0  0
   86.7992   85.9396   71.8381 C   0  0  0  0  0
   95.9887   72.4330   77.4495 C   0  0  0  0  0
   90.2873   80.4974   71.3617 C   0  0  0  0  0
   88.9979   82.7642   73.5168 C   0  0  0  0  0
   87.8618   84.7476   75.1489 C   0  0  0  0  0
   89.1238   82.6804   74.9164 C   0  0  0  0  0
   88.5531   83.6768   75.7377 C   0  0  0  0  0
   96.9784   74.1204   76.2279 C   0  0  0  0  0
   85.9432   87.0228   71.2633 C   0  0  0  0  0
   86.3010   86.0812   69.0909 C   0  0  0  0  0
   89.8831   81.5015   75.5279 C   0  0  0  0  0
   88.6745   83.6109   77.2605 C   0  0  0  0  0
  1  6  1  0
  1  8  1  0
  1 12  1  0
  1 13  1  0
  2  8  1  0
  2 10  1  0
  2 14  1  0
  2 16  1  0
  3 29  1  0
  3 30  1  0
  4 27  1  0
  5 28  1  0
  6 31  1  0
  7 35  1  0
  9 37  1  0
 10 44  1  0
 11 39  1  0
 15 50  2  0
 17 51  2  0
 18 29  1  0
 18 32  1  0
 18 33  1  0
 19 36  1  0
 19 38  4  0
 19 40  4  0
 20 33  2  0
 20 34  1  0
 21 32  4  0
 21 49  4  0
 22 41  4  0
 22 42  4  0
 23 40  1  0
 23 51  1  0
 24 43  4  0
 24 49  4  0
 25 50  1  0
 25 51  1  0
 26 43  1  0
 27 28  1  0
 27 29  1  0
 28 30  1  0
 30 31  1  0
 32 34  4  0
 34 43  4  0
 35 36  1  0
 35 37  1  0
 37 39  1  0
 38 41  4  0
 38 45  4  0
 39 44  1  0
 40 42  4  0
 41 46  4  0
 42 50  1  0
 45 47  4  0
 46 48  4  0
 47 48  4  0
 47 52  1  0
 48 53  1  0
M  END
$$$$
