@<TRIPOS>COMMENT
   inp11.mol2              2    of   10
                  SCORE =  -222.9606
               dG-SCORE =    -5.3599
      LIGAND_EFFICIENCY =    -1.0135
  NUMBER_OF_HEAVY_ATOMS =         22
                    ASA =  -188.4399
                    ELE =     0.0000
                    HYD =   -34.5207
                    VDW =     0.0000
                   RMSD =    29.4447
 MOLECULAR_WEIGHT = 332.29
@<TRIPOS>MOLECULE
inp11.mol2                                                                      
   43   44    0    0    0
SMALL       
GASTEIGER      
 
@<TRIPOS>ATOM
    1 P        95.1259   78.1477   77.9260 P.3      1 UNK          0.0000
    2 O        93.1602   81.9714   77.3136 O.3      1 UNK          0.0000
    3 O        94.9059   79.7154   77.6217 O.3      1 UNK          0.0000
    4 O        95.5650   77.1287   76.7685 O.3      1 UNK          0.0000
    5 H        95.6340   77.6143   75.9312 H        1 UNK          0.0000
    6 O        93.8674   78.1803   76.9344 O.3      1 UNK          0.0000
    7 H        94.0315   78.8674   76.2676 H        1 UNK          0.0000
    8 O        96.5955   78.6335   77.5054 O.3      1 UNK          0.0000
    9 H        97.1848   77.8599   77.4987 H        1 UNK          0.0000
   10 O        90.2147   80.2577   73.7666 O.2      1 UNK          0.0000
   11 N        91.4028   83.3114   76.4493 N.ar     1 UNK          0.0000
   12 N        88.1029   80.9221   73.6040 N.am     1 UNK          0.0000
   13 H        87.9039   80.1489   72.9838 H        1 UNK          0.0000
   14 H        87.3682   81.5671   73.8514 H        1 UNK          0.0000
   15 C        94.0904   83.1819   79.0869 C.3      1 UNK          0.0000
   16 H        95.0234   83.7442   79.2289 H        1 UNK          0.0000
   17 C        93.0346   84.0555   78.3462 C.3      1 UNK          0.0000
   18 H        92.1058   84.0685   78.9321 H        1 UNK          0.0000
   19 C        94.3658   82.0218   78.0917 C.3      1 UNK          0.0000
   20 H        95.2106   82.2971   77.4449 H        1 UNK          0.0000
   21 C        92.7891   83.3172   76.9979 C.3      1 UNK          0.0000
   22 H        93.4644   83.7066   76.2215 H        1 UNK          0.0000
   23 C        93.5823   82.7372   80.4869 C.3      1 UNK          0.0000
   24 H        94.3503   82.1634   81.0212 H        1 UNK          0.0000
   25 H        92.6801   82.1179   80.4056 H        1 UNK          0.0000
   26 H        93.3398   83.6118   81.1040 H        1 UNK          0.0000
   27 C        93.5217   85.5127   78.1399 C.3      1 UNK          0.0000
   28 H        93.6874   86.0042   79.1082 H        1 UNK          0.0000
   29 H        94.4674   85.5360   77.5823 H        1 UNK          0.0000
   30 H        92.7875   86.1077   77.5835 H        1 UNK          0.0000
   31 C        94.6425   80.6250   78.7024 C.3      1 UNK          0.0000
   32 H        95.5123   80.6742   79.3704 H        1 UNK          0.0000
   33 H        93.7727   80.2811   79.2765 H        1 UNK          0.0000
   34 C        91.0226   82.2788   75.5700 C.ar     1 UNK          0.0000
   35 H        91.7702   81.5249   75.3158 H        1 UNK          0.0000
   36 C        90.4491   84.3004   76.7567 C.ar     1 UNK          0.0000
   37 H        90.7319   85.1194   77.4171 H        1 UNK          0.0000
   38 C        89.7207   82.2042   75.0352 C.ar     1 UNK          0.0000
   39 C        89.1472   84.2334   76.2331 C.ar     1 UNK          0.0000
   40 H        88.4218   85.0006   76.4909 H        1 UNK          0.0000
   41 C        88.7774   83.1891   75.3767 C.ar     1 UNK          0.0000
   42 H        87.7661   83.1587   74.9785 H        1 UNK          0.0000
   43 C        89.3778   81.0722   74.1055 C.2      1 UNK          0.0000
@<TRIPOS>BOND
     1     1     3   1 
     2     1     4   1 
     3     1     6   1 
     4     1     8   1 
     5     2    19   1 
     6     2    21   1 
     7     3    31   1 
     8     4     5   1 
     9     6     7   1 
    10     8     9   1 
    11    10    43   2 
    12    11    21   1 
    13    11    34   ar
    14    11    36   ar
    15    12    13   1 
    16    12    14   1 
    17    12    43   am
    18    15    16   1 
    19    15    17   1 
    20    15    19   1 
    21    15    23   1 
    22    17    18   1 
    23    17    21   1 
    24    17    27   1 
    25    19    20   1 
    26    19    31   1 
    27    21    22   1 
    28    23    24   1 
    29    23    25   1 
    30    23    26   1 
    31    27    28   1 
    32    27    29   1 
    33    27    30   1 
    34    31    32   1 
    35    31    33   1 
    36    34    35   1 
    37    34    38   ar
    38    36    37   1 
    39    36    39   ar
    40    38    41   ar
    41    38    43   1 
    42    39    40   1 
    43    39    41   ar
    44    41    42   1 
 
