inp11.mol2
     Hgene          

 22 23  0  0  0  0               V2000
   95.1259   78.1477   77.9260 P   0  0  2  0  0
   93.1602   81.9714   77.3136 O   0  0  0  0  0
   94.9059   79.7154   77.6217 O   0  0  0  0  0
   95.5650   77.1287   76.7685 O   0  0  0  0  0
   93.8674   78.1803   76.9344 O   0  0  0  0  0
   96.5955   78.6335   77.5054 O   0  0  0  0  0
   90.2147   80.2577   73.7666 O   0  0  0  0  0
   91.4028   83.3114   76.4493 N   0  0  0  0  0
   88.1029   80.9221   73.6040 N   0  0  0  0  0
   94.0904   83.1819   79.0869 C   0  0  0  0  0
   93.0346   84.0555   78.3462 C   0  0  0  0  0
   94.3658   82.0218   78.0917 C   0  0  0  0  0
   92.7891   83.3172   76.9979 C   0  0  0  0  0
   93.5823   82.7372   80.4869 C   0  0  0  0  0
   93.5217   85.5127   78.1399 C   0  0  0  0  0
   94.6425   80.6250   78.7024 C   0  0  0  0  0
   91.0226   82.2788   75.5700 C   0  0  0  0  0
   90.4491   84.3004   76.7567 C   0  0  0  0  0
   89.7207   82.2042   75.0352 C   0  0  0  0  0
   89.1472   84.2334   76.2331 C   0  0  0  0  0
   88.7774   83.1891   75.3767 C   0  0  0  0  0
   89.3778   81.0722   74.1055 C   0  0  0  0  0
  1  3  1  0
  1  4  1  0
  1  5  1  0
  1  6  1  0
  2 12  1  0
  2 13  1  0
  3 16  1  0
  7 22  2  0
  8 13  1  0
  8 17  4  0
  8 18  4  0
  9 22  1  0
 10 11  1  0
 10 12  1  0
 10 14  1  0
 11 13  1  0
 11 15  1  0
 12 16  1  0
 17 19  4  0
 18 20  4  0
 19 21  4  0
 19 22  1  0
 20 21  4  0
M  END
$$$$
