inp11.mol2
     Hgene          

 22 23  0  0  0  0               V2000
   93.5014   72.4870   77.2497 P   0  0  2  0  0
   92.6957   76.8755   76.4881 O   0  0  0  0  0
   93.7818   74.0688   77.1111 O   0  0  0  0  0
   94.1571   71.4375   76.2273 O   0  0  0  0  0
   92.8127   72.9147   75.8614 O   0  0  0  0  0
   95.0739   72.5473   77.5752 O   0  0  0  0  0
   92.0193   76.7126   71.4269 O   0  0  0  0  0
   92.2148   78.8252   75.1569 N   0  0  0  0  0
   90.0296   77.5342   70.8105 N   0  0  0  0  0
   93.0624   77.5812   78.6135 C   0  0  0  0  0
   92.7684   78.8036   77.7314 C   0  0  0  0  0
   93.4675   76.4587   77.6160 C   0  0  0  0  0
   93.0103   78.2673   76.2799 C   0  0  0  0  0
   91.8183   77.2238   79.4532 C   0  0  0  0  0
   93.5903   80.0581   78.1041 C   0  0  0  0  0
   93.1407   74.9822   78.0088 C   0  0  0  0  0
   92.1785   78.1019   73.9001 C   0  0  0  0  0
   91.4220   80.0199   75.1987 C   0  0  0  0  0
   91.2060   78.3912   72.8975 C   0  0  0  0  0
   90.4492   80.3230   74.2139 C   0  0  0  0  0
   90.2825   79.4594   73.0725 C   0  0  0  0  0
   91.1196   77.4974   71.6562 C   0  0  0  0  0
  1  3  1  0
  1  4  1  0
  1  5  1  0
  1  6  1  0
  2 12  1  0
  2 13  1  0
  3 16  1  0
  7 22  2  0
  8 13  1  0
  8 17  4  0
  8 18  4  0
  9 22  1  0
 10 11  1  0
 10 12  1  0
 10 14  1  0
 11 13  1  0
 11 15  1  0
 12 16  1  0
 17 19  4  0
 18 20  4  0
 19 21  4  0
 19 22  1  0
 20 21  4  0
M  END
$$$$
