inp11.mol2
     Hgene          

 22 23  0  0  0  0               V2000
   89.3056   79.4367   72.7991 P   0  0  2  0  0
   90.3326   82.3304   75.8701 O   0  0  0  0  0
   89.1567   80.5891   73.9164 O   0  0  0  0  0
   88.7696   77.9485   73.0616 O   0  0  0  0  0
   90.2372   78.9361   74.0030 O   0  0  0  0  0
   87.7150   79.6031   72.9222 O   0  0  0  0  0
   92.5131   78.9897   78.7475 O   0  0  0  0  0
   91.5383   83.0006   77.8009 N   0  0  0  0  0
   94.3574   79.4773   79.8826 N   0  0  0  0  0
   89.6945   84.3022   74.7838 C   0  0  0  0  0
   90.3491   84.6420   76.1558 C   0  0  0  0  0
   89.3812   82.7852   74.8958 C   0  0  0  0  0
   90.3637   83.2916   76.9301 C   0  0  0  0  0
   90.6191   84.6943   73.5976 C   0  0  0  0  0
   89.5741   85.7488   76.9159 C   0  0  0  0  0
   89.5253   81.9423   73.6038 C   0  0  0  0  0
   91.8547   81.6594   78.0920 C   0  0  0  0  0
   92.3475   84.0061   78.3634 C   0  0  0  0  0
   92.9651   81.3173   78.8899 C   0  0  0  0  0
   93.4594   83.6766   79.1564 C   0  0  0  0  0
   93.7739   82.3379   79.4198 C   0  0  0  0  0
   93.2506   79.8649   79.1585 C   0  0  0  0  0
  1  3  1  0
  1  4  1  0
  1  5  1  0
  1  6  1  0
  2 12  1  0
  2 13  1  0
  3 16  1  0
  7 22  2  0
  8 13  1  0
  8 17  4  0
  8 18  4  0
  9 22  1  0
 10 11  1  0
 10 12  1  0
 10 14  1  0
 11 13  1  0
 11 15  1  0
 12 16  1  0
 17 19  4  0
 18 20  4  0
 19 21  4  0
 19 22  1  0
 20 21  4  0
M  END
$$$$
