@<TRIPOS>COMMENT
   inp11.mol2              8    of   10
                  SCORE =  -216.0327
               dG-SCORE =    -4.8742
      LIGAND_EFFICIENCY =    -0.9820
  NUMBER_OF_HEAVY_ATOMS =         22
                    ASA =  -191.5889
                    ELE =     0.0000
                    HYD =   -20.6398
                    VDW =    -3.8041
                   RMSD =    29.4953
 MOLECULAR_WEIGHT = 332.29
@<TRIPOS>MOLECULE
inp11.mol2                                                                      
   43   44    0    0    0
SMALL       
GASTEIGER      
 
@<TRIPOS>ATOM
    1 P        92.5120   78.6917   79.1233 P.3      1 UNK          0.0000
    2 O        90.9014   81.5022   76.2229 O.3      1 UNK          0.0000
    3 O        92.3570   80.0172   78.2120 O.3      1 UNK          0.0000
    4 O        93.6439   77.6317   78.7725 O.3      1 UNK          0.0000
    5 H        94.1659   77.9620   78.0242 H        1 UNK          0.0000
    6 O        92.1347   78.0525   77.7038 O.3      1 UNK          0.0000
    7 H        92.6457   78.4987   77.0091 H        1 UNK          0.0000
    8 O        93.8836   79.4555   79.4511 O.3      1 UNK          0.0000
    9 H        94.3917   78.9334   80.0904 H        1 UNK          0.0000
   10 O        91.0910   78.1818   72.4311 O.2      1 UNK          0.0000
   11 N        89.8080   81.9050   74.1124 N.ar     1 UNK          0.0000
   12 N        89.4833   78.0109   70.9399 N.am     1 UNK          0.0000
   13 H        89.8188   77.0986   70.6544 H        1 UNK          0.0000
   14 H        88.7163   78.4252   70.4589 H        1 UNK          0.0000
   15 C        90.2474   83.2438   77.5324 C.3      1 UNK          0.0000
   16 H        90.7102   84.1459   77.9449 H        1 UNK          0.0000
   17 C        89.7846   83.5346   76.1039 C.3      1 UNK          0.0000
   18 H        88.7085   83.3102   76.0441 H        1 UNK          0.0000
   19 C        91.3336   82.1353   77.4343 C.3      1 UNK          0.0000
   20 H        92.3040   82.6105   77.2512 H        1 UNK          0.0000
   21 C        90.5575   82.4948   75.2435 C.3      1 UNK          0.0000
   22 H        91.4893   82.9465   74.8700 H        1 UNK          0.0000
   23 C        88.9173   82.9511   78.2404 C.3      1 UNK          0.0000
   24 H        89.0911   82.5402   79.2349 H        1 UNK          0.0000
   25 H        88.2858   82.2602   77.6814 H        1 UNK          0.0000
   26 H        88.4041   83.9092   78.3394 H        1 UNK          0.0000
   27 C        90.0330   85.0116   75.7295 C.3      1 UNK          0.0000
   28 H        89.4683   85.6789   76.3983 H        1 UNK          0.0000
   29 H        91.0984   85.2608   75.8302 H        1 UNK          0.0000
   30 H        89.7292   85.2242   74.6977 H        1 UNK          0.0000
   31 C        91.5201   81.1257   78.6153 C.3      1 UNK          0.0000
   32 H        91.9723   81.5963   79.4852 H        1 UNK          0.0000
   33 H        90.5365   80.7609   78.9149 H        1 UNK          0.0000
   34 C        90.2102   80.6071   73.5921 C.ar     1 UNK          0.0000
   35 H        91.0512   80.1219   74.0868 H        1 UNK          0.0000
   36 C        88.7054   82.5483   73.4540 C.ar     1 UNK          0.0000
   37 H        88.3885   83.5350   73.8290 H        1 UNK          0.0000
   38 C        89.5501   80.0134   72.4908 C.ar     1 UNK          0.0000
   39 C        88.0403   81.9720   72.3529 C.ar     1 UNK          0.0000
   40 H        87.2313   82.4892   71.8494 H        1 UNK          0.0000
   41 C        88.4436   80.6735   71.8751 C.ar     1 UNK          0.0000
   42 H        87.9080   80.2553   71.0486 H        1 UNK          0.0000
   43 C        90.0904   78.6743   71.9692 C.2      1 UNK          0.0000
@<TRIPOS>BOND
     1     1     3   1 
     2     1     4   1 
     3     1     6   1 
     4     1     8   1 
     5     2    19   1 
     6     2    21   1 
     7     3    31   1 
     8     4     5   1 
     9     6     7   1 
    10     8     9   1 
    11    10    43   2 
    12    11    21   1 
    13    11    34   ar
    14    11    36   ar
    15    12    13   1 
    16    12    14   1 
    17    12    43   am
    18    15    16   1 
    19    15    17   1 
    20    15    19   1 
    21    15    23   1 
    22    17    18   1 
    23    17    21   1 
    24    17    27   1 
    25    19    20   1 
    26    19    31   1 
    27    21    22   1 
    28    23    24   1 
    29    23    25   1 
    30    23    26   1 
    31    27    28   1 
    32    27    29   1 
    33    27    30   1 
    34    31    32   1 
    35    31    33   1 
    36    34    35   1 
    37    34    38   ar
    38    36    37   1 
    39    36    39   ar
    40    38    41   ar
    41    38    43   1 
    42    39    40   1 
    43    39    41   ar
    44    41    42   1 
 
