inp11.mol2
     Hgene          

 22 23  0  0  0  0               V2000
   85.1215   84.2423   70.8033 P   0  0  2  0  0
   87.6534   83.7761   74.3681 O   0  0  0  0  0
   85.5210   84.1326   72.3670 O   0  0  0  0  0
   84.1624   83.1971   70.0404 O   0  0  0  0  0
   85.9844   82.8917   70.8544 O   0  0  0  0  0
   83.6954   84.3988   71.4857 O   0  0  0  0  0
   88.5517   79.1345   73.1284 O   0  0  0  0  0
   89.1488   82.5020   75.6529 N   0  0  0  0  0
   90.6226   78.4014   73.2741 N   0  0  0  0  0
   87.6008   85.8746   75.2834 C   0  0  0  0  0
   88.5374   84.9576   76.1107 C   0  0  0  0  0
   86.7479   84.8605   74.4306 C   0  0  0  0  0
   88.0974   83.5317   75.7010 C   0  0  0  0  0
   88.5029   86.8822   74.5024 C   0  0  0  0  0
   88.5266   85.1975   77.6375 C   0  0  0  0  0
   86.3203   85.1704   72.9538 C   0  0  0  0  0
   89.0073   81.4360   74.7082 C   0  0  0  0  0
   90.3453   82.5469   76.4402 C   0  0  0  0  0
   90.0031   80.4534   74.5219 C   0  0  0  0  0
   91.3899   81.6034   76.2349 C   0  0  0  0  0
   91.2340   80.5557   75.2644 C   0  0  0  0  0
   89.6648   79.3077   73.5988 C   0  0  0  0  0
  1  3  1  0
  1  4  1  0
  1  5  1  0
  1  6  1  0
  2 12  1  0
  2 13  1  0
  3 16  1  0
  7 22  2  0
  8 13  1  0
  8 17  4  0
  8 18  4  0
  9 22  1  0
 10 11  1  0
 10 12  1  0
 10 14  1  0
 11 13  1  0
 11 15  1  0
 12 16  1  0
 17 19  4  0
 18 20  4  0
 19 21  4  0
 19 22  1  0
 20 21  4  0
M  END
$$$$
