inp11.mol2
     Hgene          

 31 33  0  0  0  0               V2000
   80.7870   50.9700   92.4650 P   0  0  1  0  0
   82.7720   55.9360   88.1710 O   0  0  0  0  0
   83.3210   52.3010   87.8200 O   0  0  0  0  0
   80.6880   53.2210   88.8110 O   0  0  0  0  0
   80.9860   52.1910   91.4320 O   0  0  0  0  0
   84.2350   60.7080   86.2660 O   0  0  0  0  0
   87.7140   58.1200   87.4380 O   0  0  0  0  0
   79.4850   51.2540   93.3580 O   0  0  0  0  0
   80.5870   49.6080   91.6380 O   0  0  0  0  0
   82.0760   50.8650   93.4170 O   0  0  0  0  0
   83.9820   55.9630   85.6180 N   0  0  0  0  0
   82.7720   58.4900   85.2770 N   0  0  0  0  0
   85.9510   57.0740   86.5410 N   0  0  0  0  0
   86.0080   59.4680   86.8840 N   0  0  0  0  0
   82.8890   54.6670   87.5150 C   0  0  0  0  0
   84.0420   54.7360   86.4740 C   0  0  0  0  0
   83.1060   53.5140   88.5430 C   0  0  0  0  0
   82.9630   56.1350   84.6530 C   0  0  0  0  0
   84.6720   57.1280   86.0070 C   0  0  0  0  0
   81.9110   53.3640   89.5350 C   0  0  0  0  0
   82.3370   57.4020   84.5110 C   0  0  0  0  0
   84.0310   58.3820   85.8800 C   0  0  0  0  0
   82.5560   55.0660   83.8300 C   0  0  0  0  0
   82.0890   52.1760   90.5140 C   0  0  0  0  0
   81.3070   57.5810   83.5730 C   0  0  0  0  0
   81.5240   55.2470   82.8880 C   0  0  0  0  0
   80.8940   56.5080   82.7610 C   0  0  0  0  0
   84.7430   59.6080   86.3490 C   0  0  0  0  0
   86.6000   58.2210   86.9730 C   0  0  0  0  0
   81.1040   54.0690   82.0070 C   0  0  0  0  0
   79.7740   56.7310   81.7450 C   0  0  0  0  0
  1  5  1  0
  1  8  1  0
  1  9  1  0
  1 10  1  0
  2 15  1  0
  3 17  1  0
  4 20  1  0
  5 24  1  0
  6 28  2  0
  7 29  2  0
 11 16  1  0
 11 18  1  0
 11 19  1  0
 12 21  1  0
 12 22  1  0
 13 19  1  0
 13 29  1  0
 14 28  1  0
 14 29  1  0
 15 16  1  0
 15 17  1  0
 17 20  1  0
 18 21  4  0
 18 23  4  0
 19 22  2  0
 20 24  1  0
 21 25  4  0
 22 28  1  0
 23 26  4  0
 25 27  4  0
 26 27  4  0
 26 30  1  0
 27 31  1  0
M  END
$$$$
