@<TRIPOS>COMMENT
   inp11.mol2              1    of   10
                  SCORE =  -375.6107
               dG-SCORE =    -7.9519
      LIGAND_EFFICIENCY =    -0.7825
  NUMBER_OF_HEAVY_ATOMS =         48
                    ASA =  -299.7467
                    ELE =     0.0000
                    HYD =   -60.2611
                    VDW =   -15.6030
                   RMSD =    29.7291
 MOLECULAR_WEIGHT = 747.44
@<TRIPOS>MOLECULE
inp11.mol2                                                                      
   80   84    0    0    0
SMALL       
GASTEIGER      
 
@<TRIPOS>ATOM
    1 N        94.6834   77.1553   70.4413 N.am     1 UNK          0.0000
    2 H        95.0536   77.2189   71.3808 H        1 UNK          0.0000
    3 H        94.7328   77.9677   69.8359 H        1 UNK          0.0000
    4 C        94.1376   75.9958   69.9616 C.2      1 UNK          0.0000
    5 O        93.6908   76.0213   68.8283 O.2      1 UNK          0.0000
    6 C        94.1073   74.7170   70.7961 C.ar     1 UNK          0.0000
    7 C        93.6634   73.4963   70.2679 C.ar     1 UNK          0.0000
    8 H        93.2371   73.4422   69.2564 H        1 UNK          0.0000
    9 C        93.6789   72.2865   71.0522 C.ar     1 UNK          0.0000
   10 H        93.2634   71.3782   70.6668 H        1 UNK          0.0000
   11 C        94.1116   72.3808   72.4366 C.ar     1 UNK          0.0000
   12 H        94.0553   71.4914   73.0907 H        1 UNK          0.0000
   13 N        94.4528   73.6224   73.0013 N.ar     1 UNK          0.0000
   14 C        94.5226   74.7972   72.1780 C.ar     1 UNK          0.0000
   15 H        94.8571   75.7185   72.6095 H        1 UNK          0.0000
   16 C        94.7006   73.7278   74.4737 C.3      1 UNK          0.0000
   17 H        93.7492   73.6513   75.0204 H        1 UNK          0.0000
   18 O        95.4069   74.9322   74.8055 O.3      1 UNK          0.0000
   19 C        96.0207   74.7868   76.1015 C.3      1 UNK          0.0000
   20 H        96.9799   75.3198   76.1352 H        1 UNK          0.0000
   21 C        95.1746   75.2605   77.2956 C.3      1 UNK          0.0000
   22 H        95.7433   75.0362   78.1975 H        1 UNK          0.0000
   23 H        94.9988   76.3433   77.2417 H        1 UNK          0.0000
   24 O        93.9437   74.5548   77.3850 O.3      1 UNK          0.0000
   25 P        92.6631   75.2592   76.7707 P.3      1 UNK          0.0000
   26 O        91.8240   74.0614   76.1418 O.3      1 UNK          0.0000
   27 H        91.0663   74.4612   75.6713 H        1 UNK          0.0000
   28 O        93.0043   76.3445   75.6271 O.3      1 UNK          0.0000
   29 H        93.3681   77.1458   76.0438 H        1 UNK          0.0000
   30 O        91.9165   75.9561   77.9761 O.3      1 UNK          0.0000
   31 P        92.0803   77.4598   78.4340 P.3      1 UNK          0.0000
   32 O        91.0361   78.3138   77.6010 O.3      1 UNK          0.0000
   33 H        90.1707   77.8759   77.6104 H        1 UNK          0.0000
   34 O        91.7827   77.3230   79.9763 O.3      1 UNK          0.0000
   35 H        90.8701   76.9930   80.0700 H        1 UNK          0.0000
   36 O        93.5520   78.0846   78.2563 O.3      1 UNK          0.0000
   37 C        94.0054   79.1623   79.1052 C.3      1 UNK          0.0000
   38 H        93.8743   78.8517   80.1361 H        1 UNK          0.0000
   39 H        95.0780   79.3105   78.9477 H        1 UNK          0.0000
   40 C        93.2663   80.5191   78.9255 C.3      1 UNK          0.0000
   41 H        92.1755   80.4301   79.0111 H        1 UNK          0.0000
   42 O        93.6439   81.1400   77.6807 O.3      1 UNK          0.0000
   43 C        93.2977   82.5518   77.7421 C.3      1 UNK          0.0000
   44 H        93.9228   83.1190   77.0441 H        1 UNK          0.0000
   45 C        93.6361   82.9227   79.2168 C.3      1 UNK          0.0000
   46 H        92.8219   83.4992   79.6496 H        1 UNK          0.0000
   47 O        94.8625   83.6712   79.3938 O.3      1 UNK          0.0000
   48 P        96.2363   83.4645   78.5624 P.3      1 UNK          0.0000
   49 O        96.6391   81.9124   78.4257 O.3      1 UNK          0.0000
   50 H        95.9416   81.4641   77.9096 H        1 UNK          0.0000
   51 O        97.3657   84.2631   79.3188 O.3      1 UNK          0.0000
   52 H        97.0672   85.1726   79.4710 H        1 UNK          0.0000
   53 O        96.1263   84.1610   77.1278 O.3      1 UNK          0.0000
   54 H        97.0122   84.1677   76.7265 H        1 UNK          0.0000
   55 C        93.7671   81.5675   79.9200 C.3      1 UNK          0.0000
   56 H        94.8195   81.3654   80.1570 H        1 UNK          0.0000
   57 O        92.9979   81.6201   81.0920 O.3      1 UNK          0.0000
   58 H        93.4034   82.3249   81.6287 H        1 UNK          0.0000
   59 N        91.9057   82.8009   77.3025 N.ar     1 UNK          0.0000
   60 C        91.1072   81.9145   76.5610 C.ar     1 UNK          0.0000
   61 H        91.5096   80.9719   76.2278 H        1 UNK          0.0000
   62 N        89.8668   82.3528   76.3378 N.ar     1 UNK          0.0000
   63 C        89.9140   83.6227   76.7995 C.ar     1 UNK          0.0000
   64 C        91.1473   83.9380   77.3849 C.ar     1 UNK          0.0000
   65 N        91.4184   85.2226   77.8663 N.ar     1 UNK          0.0000
   66 C        90.4282   86.1739   77.6312 C.ar     1 UNK          0.0000
   67 H        90.6791   87.2231   77.7868 H        1 UNK          0.0000
   68 N        89.1484   85.9211   77.1706 N.ar     1 UNK          0.0000
   69 C        88.9078   84.6407   76.6799 C.ar     1 UNK          0.0000
   70 N        87.7212   84.4131   76.0249 N.pl3    1 UNK          0.0000
   71 H        87.5146   83.4878   75.6802 H        1 UNK          0.0000
   72 H        87.0813   85.1719   75.8746 H        1 UNK          0.0000
   73 C        96.2178   73.2716   76.2184 C.3      1 UNK          0.0000
   74 H        95.6829   72.8884   77.0992 H        1 UNK          0.0000
   75 O        97.5939   73.0083   76.2884 O.3      1 UNK          0.0000
   76 H        97.8900   73.3885   77.1359 H        1 UNK          0.0000
   77 C        95.6475   72.6565   74.9503 C.3      1 UNK          0.0000
   78 H        96.4306   72.6068   74.1858 H        1 UNK          0.0000
   79 O        95.0417   71.3933   75.2104 O.3      1 UNK          0.0000
   80 H        95.7484   70.8187   75.5564 H        1 UNK          0.0000
@<TRIPOS>BOND
     1     1     2   1 
     2     1     3   1 
     3     1     4   am
     4     4     5   2 
     5     4     6   1 
     6     6     7   ar
     7     6    14   ar
     8     7     8   1 
     9     7     9   ar
    10     9    10   1 
    11     9    11   ar
    12    11    12   1 
    13    11    13   ar
    14    13    14   ar
    15    13    16   1 
    16    14    15   1 
    17    16    17   1 
    18    16    18   1 
    19    16    77   1 
    20    18    19   1 
    21    19    20   1 
    22    19    21   1 
    23    19    73   1 
    24    21    22   1 
    25    21    23   1 
    26    21    24   1 
    27    24    25   1 
    28    25    26   1 
    29    25    28   1 
    30    25    30   1 
    31    26    27   1 
    32    28    29   1 
    33    30    31   1 
    34    31    32   1 
    35    31    34   1 
    36    31    36   1 
    37    32    33   1 
    38    34    35   1 
    39    36    37   1 
    40    37    38   1 
    41    37    39   1 
    42    37    40   1 
    43    40    41   1 
    44    40    42   1 
    45    40    55   1 
    46    42    43   1 
    47    43    44   1 
    48    43    45   1 
    49    43    59   1 
    50    45    46   1 
    51    45    47   1 
    52    45    55   1 
    53    47    48   1 
    54    48    49   1 
    55    48    51   1 
    56    48    53   1 
    57    49    50   1 
    58    51    52   1 
    59    53    54   1 
    60    55    56   1 
    61    55    57   1 
    62    57    58   1 
    63    59    60   1 
    64    59    64   1 
    65    60    61   1 
    66    60    62   2 
    67    62    63   1 
    68    63    64   ar
    69    63    69   ar
    70    64    65   ar
    71    65    66   ar
    72    66    67   1 
    73    66    68   ar
    74    68    69   ar
    75    69    70   1 
    76    70    71   1 
    77    70    72   1 
    78    73    74   1 
    79    73    75   1 
    80    73    77   1 
    81    75    76   1 
    82    77    78   1 
    83    77    79   1 
    84    79    80   1 
 
