@<TRIPOS>COMMENT
   inp11.mol2              4    of   10
                  SCORE =  -288.3794
               dG-SCORE =    -5.1817
      LIGAND_EFFICIENCY =    -0.6008
  NUMBER_OF_HEAVY_ATOMS =         48
                    ASA =  -246.3456
                    ELE =     0.0000
                    HYD =   -26.4260
                    VDW =   -15.6078
                   RMSD =    30.6569
 MOLECULAR_WEIGHT = 747.44
@<TRIPOS>MOLECULE
inp11.mol2                                                                      
   80   84    0    0    0
SMALL       
GASTEIGER      
 
@<TRIPOS>ATOM
    1 N        93.7123   75.7511   72.9014 N.am     1 UNK          0.0000
    2 H        93.6981   76.7598   72.9414 H        1 UNK          0.0000
    3 H        93.5168   75.2824   72.0405 H        1 UNK          0.0000
    4 C        93.9591   75.0069   74.0422 C.2      1 UNK          0.0000
    5 O        93.9969   73.7869   73.9020 O.2      1 UNK          0.0000
    6 C        94.1396   75.6105   75.3728 C.ar     1 UNK          0.0000
    7 C        93.9296   74.7803   76.5143 C.ar     1 UNK          0.0000
    8 H        93.6990   73.7119   76.3680 H        1 UNK          0.0000
    9 C        93.9676   75.2902   77.7840 C.ar     1 UNK          0.0000
   10 H        93.7581   74.6310   78.6224 H        1 UNK          0.0000
   11 C        94.3205   76.6958   78.0030 C.ar     1 UNK          0.0000
   12 H        94.3650   77.0920   78.9957 H        1 UNK          0.0000
   13 N        94.6709   77.5438   76.9137 N.ar     1 UNK          0.0000
   14 C        94.5039   77.0255   75.6052 C.ar     1 UNK          0.0000
   15 H        94.6575   77.6730   74.7422 H        1 UNK          0.0000
   16 C        95.1562   78.9717   77.2480 C.3      1 UNK          0.0000
   17 H        94.4738   79.3579   78.0098 H        1 UNK          0.0000
   18 O        95.0943   79.7962   76.0648 O.3      1 UNK          0.0000
   19 C        95.6438   81.1117   76.3567 C.3      1 UNK          0.0000
   20 H        96.1557   81.4865   75.4577 H        1 UNK          0.0000
   21 C        94.5563   82.1748   76.7636 C.3      1 UNK          0.0000
   22 H        95.0824   83.0782   77.0985 H        1 UNK          0.0000
   23 H        93.9707   82.4575   75.8793 H        1 UNK          0.0000
   24 O        93.6712   81.7394   77.8275 O.3      1 UNK          0.0000
   25 P        92.2436   80.9982   77.6072 P.3      1 UNK          0.0000
   26 O        92.1392   79.9416   78.8129 O.3      1 UNK          0.0000
   27 H        91.5155   79.2577   78.5272 H        1 UNK          0.0000
   28 O        92.2048   80.1376   76.2415 O.3      1 UNK          0.0000
   29 H        92.2971   80.7358   75.4754 H        1 UNK          0.0000
   30 O        91.0215   82.0644   77.6520 O.3      1 UNK          0.0000
   31 P        90.4161   82.9663   76.4520 P.3      1 UNK          0.0000
   32 O        89.1928   82.2452   75.6948 O.3      1 UNK          0.0000
   33 H        88.4261   82.2036   76.2898 H        1 UNK          0.0000
   34 O        89.8748   84.3495   77.0706 O.3      1 UNK          0.0000
   35 H        89.0128   84.2075   77.4896 H        1 UNK          0.0000
   36 O        91.6058   83.2888   75.3930 O.3      1 UNK          0.0000
   37 C        91.6343   84.4729   74.5567 C.3      1 UNK          0.0000
   38 H        91.6630   85.3615   75.1988 H        1 UNK          0.0000
   39 H        92.5510   84.4761   73.9505 H        1 UNK          0.0000
   40 C        90.4053   84.5656   73.6091 C.3      1 UNK          0.0000
   41 H        89.4653   84.3602   74.1357 H        1 UNK          0.0000
   42 O        90.5798   83.6361   72.5201 O.3      1 UNK          0.0000
   43 C        89.6488   83.9976   71.4726 C.3      1 UNK          0.0000
   44 H        90.0606   83.6789   70.5079 H        1 UNK          0.0000
   45 C        89.5997   85.5617   71.5487 C.3      1 UNK          0.0000
   46 H        88.5565   85.9031   71.5706 H        1 UNK          0.0000
   47 O        90.3091   86.1951   70.4360 O.3      1 UNK          0.0000
   48 P        91.6799   85.6837   69.7077 P.3      1 UNK          0.0000
   49 O        92.7387   85.1052   70.7717 O.3      1 UNK          0.0000
   50 H        92.3391   84.3400   71.2243 H        1 UNK          0.0000
   51 O        92.3435   86.9151   68.9254 O.3      1 UNK          0.0000
   52 H        91.7124   87.2545   68.2697 H        1 UNK          0.0000
   53 O        91.3206   84.5230   68.6550 O.3      1 UNK          0.0000
   54 H        92.1379   84.2127   68.2286 H        1 UNK          0.0000
   55 C        90.2940   85.9185   72.8844 C.3      1 UNK          0.0000
   56 H        91.3058   86.2855   72.6715 H        1 UNK          0.0000
   57 O        89.5782   86.8986   73.6462 O.3      1 UNK          0.0000
   58 H        89.5155   87.7053   73.1033 H        1 UNK          0.0000
   59 N        88.3623   83.2678   71.5602 N.ar     1 UNK          0.0000
   60 C        88.0608   82.0840   72.2602 C.ar     1 UNK          0.0000
   61 H        88.7189   81.6929   73.0287 H        1 UNK          0.0000
   62 N        86.9397   81.4936   71.8098 N.ar     1 UNK          0.0000
   63 C        86.3497   82.4920   71.0996 C.ar     1 UNK          0.0000
   64 C        87.1846   83.6032   70.9441 C.ar     1 UNK          0.0000
   65 N        86.8030   84.7287   70.2210 N.ar     1 UNK          0.0000
   66 C        85.5307   84.7024   69.6631 C.ar     1 UNK          0.0000
   67 H        85.2499   85.5292   69.0134 H        1 UNK          0.0000
   68 N        84.6043   83.6858   69.8284 N.ar     1 UNK          0.0000
   69 C        85.0440   82.5438   70.4690 C.ar     1 UNK          0.0000
   70 N        84.1831   81.4818   70.4755 N.pl3    1 UNK          0.0000
   71 H        84.4451   80.6359   70.9450 H        1 UNK          0.0000
   72 H        83.2734   81.5775   70.0569 H        1 UNK          0.0000
   73 C        96.6914   80.8242   77.4721 C.3      1 UNK          0.0000
   74 H        96.3694   81.3175   78.3997 H        1 UNK          0.0000
   75 O        98.0240   81.2334   77.1481 O.3      1 UNK          0.0000
   76 H        98.0349   82.2002   77.0209 H        1 UNK          0.0000
   77 C        96.6105   79.2956   77.6759 C.3      1 UNK          0.0000
   78 H        97.3200   78.8057   76.9938 H        1 UNK          0.0000
   79 O        96.9673   79.0655   79.0378 O.3      1 UNK          0.0000
   80 H        97.8547   79.4490   79.1735 H        1 UNK          0.0000
@<TRIPOS>BOND
     1     1     2   1 
     2     1     3   1 
     3     1     4   am
     4     4     5   2 
     5     4     6   1 
     6     6     7   ar
     7     6    14   ar
     8     7     8   1 
     9     7     9   ar
    10     9    10   1 
    11     9    11   ar
    12    11    12   1 
    13    11    13   ar
    14    13    14   ar
    15    13    16   1 
    16    14    15   1 
    17    16    17   1 
    18    16    18   1 
    19    16    77   1 
    20    18    19   1 
    21    19    20   1 
    22    19    21   1 
    23    19    73   1 
    24    21    22   1 
    25    21    23   1 
    26    21    24   1 
    27    24    25   1 
    28    25    26   1 
    29    25    28   1 
    30    25    30   1 
    31    26    27   1 
    32    28    29   1 
    33    30    31   1 
    34    31    32   1 
    35    31    34   1 
    36    31    36   1 
    37    32    33   1 
    38    34    35   1 
    39    36    37   1 
    40    37    38   1 
    41    37    39   1 
    42    37    40   1 
    43    40    41   1 
    44    40    42   1 
    45    40    55   1 
    46    42    43   1 
    47    43    44   1 
    48    43    45   1 
    49    43    59   1 
    50    45    46   1 
    51    45    47   1 
    52    45    55   1 
    53    47    48   1 
    54    48    49   1 
    55    48    51   1 
    56    48    53   1 
    57    49    50   1 
    58    51    52   1 
    59    53    54   1 
    60    55    56   1 
    61    55    57   1 
    62    57    58   1 
    63    59    60   1 
    64    59    64   1 
    65    60    61   1 
    66    60    62   2 
    67    62    63   1 
    68    63    64   ar
    69    63    69   ar
    70    64    65   ar
    71    65    66   ar
    72    66    67   1 
    73    66    68   ar
    74    68    69   ar
    75    69    70   1 
    76    70    71   1 
    77    70    72   1 
    78    73    74   1 
    79    73    75   1 
    80    73    77   1 
    81    75    76   1 
    82    77    78   1 
    83    77    79   1 
    84    79    80   1 
 
