@<TRIPOS>COMMENT
   inp11.mol2              6    of   10
                  SCORE =  -319.6406
               dG-SCORE =    -6.1730
      LIGAND_EFFICIENCY =    -0.6659
  NUMBER_OF_HEAVY_ATOMS =         48
                    ASA =  -265.1592
                    ELE =     0.0000
                    HYD =   -38.7210
                    VDW =   -15.7604
                   RMSD =    27.6761
 MOLECULAR_WEIGHT = 747.44
@<TRIPOS>MOLECULE
inp11.mol2                                                                      
   80   84    0    0    0
SMALL       
GASTEIGER      
 
@<TRIPOS>ATOM
    1 N        87.6024   81.4602   71.7291 N.am     1 UNK          0.0000
    2 H        87.8392   81.4222   72.7023 H        1 UNK          0.0000
    3 H        87.4107   80.5936   71.2319 H        1 UNK          0.0000
    4 C        87.5357   82.6396   71.0153 C.2      1 UNK          0.0000
    5 O        87.2976   82.5197   69.8403 O.2      1 UNK          0.0000
    6 C        87.7828   84.0262   71.6699 C.ar     1 UNK          0.0000
    7 C        87.8277   85.2052   70.8465 C.ar     1 UNK          0.0000
    8 H        87.6937   85.1667   69.7847 H        1 UNK          0.0000
    9 C        88.1037   86.4891   71.4700 C.ar     1 UNK          0.0000
   10 H        88.1504   87.3770   70.8424 H        1 UNK          0.0000
   11 C        88.3356   86.5636   72.8494 C.ar     1 UNK          0.0000
   12 H        88.5710   87.5335   73.3336 H        1 UNK          0.0000
   13 N        88.3070   85.4083   73.6980 N.ar     1 UNK          0.0000
   14 C        87.9996   84.1277   73.0529 C.ar     1 UNK          0.0000
   15 H        87.9806   83.2571   73.7096 H        1 UNK          0.0000
   16 C        88.6252   85.5106   75.1182 C.3      1 UNK          0.0000
   17 H        89.6505   85.8956   75.2305 H        1 UNK          0.0000
   18 O        88.4821   84.2482   75.8108 O.3      1 UNK          0.0000
   19 C        88.6110   84.4985   77.2206 C.3      1 UNK          0.0000
   20 H        88.0303   83.7607   77.7742 H        1 UNK          0.0000
   21 C        90.0513   84.4193   77.7456 C.3      1 UNK          0.0000
   22 H        89.9849   84.7133   78.7912 H        1 UNK          0.0000
   23 H        90.4175   83.3859   77.6839 H        1 UNK          0.0000
   24 O        90.9433   85.3481   77.1083 O.3      1 UNK          0.0000
   25 P        92.0039   84.8742   75.9944 P.3      1 UNK          0.0000
   26 O        92.1762   86.0670   74.9361 O.3      1 UNK          0.0000
   27 H        92.7952   85.7680   74.2470 H        1 UNK          0.0000
   28 O        91.4762   83.5693   75.2015 O.3      1 UNK          0.0000
   29 H        91.3759   82.8313   75.8352 H        1 UNK          0.0000
   30 O        93.4101   84.5948   76.7208 O.3      1 UNK          0.0000
   31 P        93.8892   83.1924   77.3339 P.3      1 UNK          0.0000
   32 O        94.4988   82.2865   76.1469 O.3      1 UNK          0.0000
   33 H        95.2313   82.7567   75.7085 H        1 UNK          0.0000
   34 O        95.0052   83.4755   78.4610 O.3      1 UNK          0.0000
   35 H        95.7853   83.8813   78.0480 H        1 UNK          0.0000
   36 O        92.5963   82.4662   78.0017 O.3      1 UNK          0.0000
   37 C        92.7392   81.4264   78.9775 C.3      1 UNK          0.0000
   38 H        93.2307   81.8377   79.8678 H        1 UNK          0.0000
   39 H        91.7705   81.0202   79.2810 H        1 UNK          0.0000
   40 C        93.6009   80.2807   78.4220 C.3      1 UNK          0.0000
   41 H        94.5282   80.6231   77.9510 H        1 UNK          0.0000
   42 O        92.8586   79.4134   77.5297 O.3      1 UNK          0.0000
   43 C        93.5626   78.1512   77.4524 C.3      1 UNK          0.0000
   44 H        92.8821   77.3127   77.2547 H        1 UNK          0.0000
   45 C        94.1359   78.0742   78.8728 C.3      1 UNK          0.0000
   46 H        95.2094   77.8600   78.7867 H        1 UNK          0.0000
   47 O        93.4299   77.1091   79.6890 O.3      1 UNK          0.0000
   48 P        91.8772   76.6874   79.4926 P.3      1 UNK          0.0000
   49 O        91.0280   77.9811   79.2008 O.3      1 UNK          0.0000
   50 H        91.5301   78.4819   78.5399 H        1 UNK          0.0000
   51 O        91.3346   75.9865   80.7969 O.3      1 UNK          0.0000
   52 H        91.8999   75.2209   81.0061 H        1 UNK          0.0000
   53 O        91.8674   75.6998   78.2516 O.3      1 UNK          0.0000
   54 H        90.9782   75.3248   78.2075 H        1 UNK          0.0000
   55 C        93.9702   79.4086   79.5790 C.3      1 UNK          0.0000
   56 H        93.1063   79.3451   80.2301 H        1 UNK          0.0000
   57 O        95.1077   79.9204   80.2777 O.3      1 UNK          0.0000
   58 H        95.2503   79.3682   81.0581 H        1 UNK          0.0000
   59 N        94.6302   78.0720   76.4432 N.ar     1 UNK          0.0000
   60 C        94.8740   78.9917   75.4212 C.ar     1 UNK          0.0000
   61 H        94.2400   79.8595   75.3050 H        1 UNK          0.0000
   62 N        95.9307   78.6844   74.6591 N.ar     1 UNK          0.0000
   63 C        96.3790   77.5243   75.2042 C.ar     1 UNK          0.0000
   64 C        95.6091   77.1128   76.2961 C.ar     1 UNK          0.0000
   65 N        95.8955   75.9482   76.9912 N.ar     1 UNK          0.0000
   66 C        97.0147   75.2410   76.5902 C.ar     1 UNK          0.0000
   67 H        97.2649   74.3773   77.1852 H        1 UNK          0.0000
   68 N        97.8236   75.5471   75.5019 N.ar     1 UNK          0.0000
   69 C        97.4993   76.7019   74.7919 C.ar     1 UNK          0.0000
   70 N        98.2462   77.0433   73.6849 N.pl3    1 UNK          0.0000
   71 H        98.0147   77.8864   73.1753 H        1 UNK          0.0000
   72 H        99.0084   76.4574   73.3827 H        1 UNK          0.0000
   73 C        88.1513   85.9793   77.3949 C.3      1 UNK          0.0000
   74 H        89.0076   86.5927   77.6852 H        1 UNK          0.0000
   75 O        87.0771   86.2452   78.2942 O.3      1 UNK          0.0000
   76 H        87.3606   86.0858   79.2096 H        1 UNK          0.0000
   77 C        87.7066   86.3624   75.9987 C.3      1 UNK          0.0000
   78 H        86.6872   86.0014   75.8175 H        1 UNK          0.0000
   79 O        87.8354   87.7703   75.8801 O.3      1 UNK          0.0000
   80 H        87.1871   88.1405   76.5104 H        1 UNK          0.0000
@<TRIPOS>BOND
     1     1     2   1 
     2     1     3   1 
     3     1     4   am
     4     4     5   2 
     5     4     6   1 
     6     6     7   ar
     7     6    14   ar
     8     7     8   1 
     9     7     9   ar
    10     9    10   1 
    11     9    11   ar
    12    11    12   1 
    13    11    13   ar
    14    13    14   ar
    15    13    16   1 
    16    14    15   1 
    17    16    17   1 
    18    16    18   1 
    19    16    77   1 
    20    18    19   1 
    21    19    20   1 
    22    19    21   1 
    23    19    73   1 
    24    21    22   1 
    25    21    23   1 
    26    21    24   1 
    27    24    25   1 
    28    25    26   1 
    29    25    28   1 
    30    25    30   1 
    31    26    27   1 
    32    28    29   1 
    33    30    31   1 
    34    31    32   1 
    35    31    34   1 
    36    31    36   1 
    37    32    33   1 
    38    34    35   1 
    39    36    37   1 
    40    37    38   1 
    41    37    39   1 
    42    37    40   1 
    43    40    41   1 
    44    40    42   1 
    45    40    55   1 
    46    42    43   1 
    47    43    44   1 
    48    43    45   1 
    49    43    59   1 
    50    45    46   1 
    51    45    47   1 
    52    45    55   1 
    53    47    48   1 
    54    48    49   1 
    55    48    51   1 
    56    48    53   1 
    57    49    50   1 
    58    51    52   1 
    59    53    54   1 
    60    55    56   1 
    61    55    57   1 
    62    57    58   1 
    63    59    60   1 
    64    59    64   1 
    65    60    61   1 
    66    60    62   2 
    67    62    63   1 
    68    63    64   ar
    69    63    69   ar
    70    64    65   ar
    71    65    66   ar
    72    66    67   1 
    73    66    68   ar
    74    68    69   ar
    75    69    70   1 
    76    70    71   1 
    77    70    72   1 
    78    73    74   1 
    79    73    75   1 
    80    73    77   1 
    81    75    76   1 
    82    77    78   1 
    83    77    79   1 
    84    79    80   1 
 
