@<TRIPOS>COMMENT
   inp11.mol2              7    of   10
                  SCORE =  -318.6378
               dG-SCORE =    -6.1501
      LIGAND_EFFICIENCY =    -0.6638
  NUMBER_OF_HEAVY_ATOMS =         48
                    ASA =  -264.6663
                    ELE =     0.0000
                    HYD =   -38.4739
                    VDW =   -15.4975
                   RMSD =    30.6931
 MOLECULAR_WEIGHT = 747.44
@<TRIPOS>MOLECULE
inp11.mol2                                                                      
   80   84    0    0    0
SMALL       
GASTEIGER      
 
@<TRIPOS>ATOM
    1 N        91.2493   85.4899   76.0737 N.am     1 UNK          0.0000
    2 H        91.2784   84.9208   75.2347 H        1 UNK          0.0000
    3 H        92.0973   85.7159   76.5570 H        1 UNK          0.0000
    4 C        90.0396   85.9597   76.5535 C.2      1 UNK          0.0000
    5 O        90.1078   86.6498   77.5661 O.2      1 UNK          0.0000
    6 C        88.7496   85.6505   75.8980 C.ar     1 UNK          0.0000
    7 C        87.5300   86.1619   76.4314 C.ar     1 UNK          0.0000
    8 H        87.5786   86.8541   77.2878 H        1 UNK          0.0000
    9 C        86.2958   85.7721   75.9120 C.ar     1 UNK          0.0000
   10 H        85.3764   86.1101   76.3870 H        1 UNK          0.0000
   11 C        86.2086   84.9564   74.7183 C.ar     1 UNK          0.0000
   12 H        85.2925   84.7089   74.2334 H        1 UNK          0.0000
   13 N        87.3980   84.5254   74.1020 N.ar     1 UNK          0.0000
   14 C        88.6419   84.8209   74.6882 C.ar     1 UNK          0.0000
   15 H        89.5541   84.4474   74.2234 H        1 UNK          0.0000
   16 C        87.2283   83.7968   72.7918 C.3      1 UNK          0.0000
   17 H        86.6204   82.9191   72.9602 H        1 UNK          0.0000
   18 O        88.5073   83.4147   72.2639 O.3      1 UNK          0.0000
   19 C        88.3099   82.9150   70.9227 C.3      1 UNK          0.0000
   20 H        89.1735   83.2035   70.3086 H        1 UNK          0.0000
   21 C        88.1828   81.3610   70.8544 C.3      1 UNK          0.0000
   22 H        87.9124   81.1133   69.8257 H        1 UNK          0.0000
   23 H        89.1440   80.8811   71.0781 H        1 UNK          0.0000
   24 O        87.1693   80.8553   71.7328 O.3      1 UNK          0.0000
   25 P        87.5087   80.2568   73.1899 P.3      1 UNK          0.0000
   26 O        86.3106   80.5812   74.1801 O.3      1 UNK          0.0000
   27 H        86.5158   80.1653   75.0358 H        1 UNK          0.0000
   28 O        88.8173   80.8662   73.9027 O.3      1 UNK          0.0000
   29 H        89.6091   80.5574   73.4264 H        1 UNK          0.0000
   30 O        87.4874   78.6801   73.1332 O.3      1 UNK          0.0000
   31 P        88.7869   77.8121   73.0803 P.3      1 UNK          0.0000
   32 O        89.1636   77.8768   74.6250 O.3      1 UNK          0.0000
   33 H        88.6653   77.1988   75.0844 H        1 UNK          0.0000
   34 O        88.3986   76.3473   72.5266 O.3      1 UNK          0.0000
   35 H        87.7720   75.9124   73.1265 H        1 UNK          0.0000
   36 O        89.8655   78.5761   72.1379 O.3      1 UNK          0.0000
   37 C        90.8339   77.9275   71.2891 C.3      1 UNK          0.0000
   38 H        90.2933   77.2548   70.6161 H        1 UNK          0.0000
   39 H        91.3327   78.6752   70.6639 H        1 UNK          0.0000
   40 C        91.9072   77.1490   72.1032 C.3      1 UNK          0.0000
   41 H        91.4263   76.4987   72.8345 H        1 UNK          0.0000
   42 O        92.8321   78.0228   72.7823 O.3      1 UNK          0.0000
   43 C        93.9340   77.2061   73.2710 C.3      1 UNK          0.0000
   44 H        94.8421   77.8107   73.3435 H        1 UNK          0.0000
   45 C        94.0853   76.1196   72.1497 C.3      1 UNK          0.0000
   46 H        94.0827   75.1139   72.5879 H        1 UNK          0.0000
   47 O        95.2321   76.2801   71.2703 O.3      1 UNK          0.0000
   48 P        95.7289   77.6762   70.5989 P.3      1 UNK          0.0000
   49 O        94.4971   78.6636   70.2815 O.3      1 UNK          0.0000
   50 H        93.9878   78.8024   71.1017 H        1 UNK          0.0000
   51 O        96.4959   77.3588   69.2283 O.3      1 UNK          0.0000
   52 H        97.2301   76.7495   69.4048 H        1 UNK          0.0000
   53 O        96.7224   78.3798   71.6430 O.3      1 UNK          0.0000
   54 H        97.0350   79.2176   71.2681 H        1 UNK          0.0000
   55 C        92.8548   76.2940   71.2592 C.3      1 UNK          0.0000
   56 H        93.1166   76.8402   70.3483 H        1 UNK          0.0000
   57 O        92.3567   75.0044   70.9082 O.3      1 UNK          0.0000
   58 H        93.0770   74.5021   70.4823 H        1 UNK          0.0000
   59 N        93.7032   76.6923   74.6523 N.ar     1 UNK          0.0000
   60 C        92.7994   77.1431   75.6390 C.ar     1 UNK          0.0000
   61 H        92.1627   78.0044   75.4635 H        1 UNK          0.0000
   62 N        92.7789   76.3908   76.7531 N.ar     1 UNK          0.0000
   63 C        93.7601   75.4865   76.5130 C.ar     1 UNK          0.0000
   64 C        94.3920   75.6827   75.2780 C.ar     1 UNK          0.0000
   65 N        95.4802   74.9246   74.8728 N.ar     1 UNK          0.0000
   66 C        95.9577   74.0011   75.7874 C.ar     1 UNK          0.0000
   67 H        96.8718   73.4929   75.5165 H        1 UNK          0.0000
   68 N        95.3759   73.6905   77.0103 N.ar     1 UNK          0.0000
   69 C        94.2355   74.4066   77.3530 C.ar     1 UNK          0.0000
   70 N        93.5850   74.0662   78.5073 N.pl3    1 UNK          0.0000
   71 H        92.7299   74.5382   78.7531 H        1 UNK          0.0000
   72 H        93.9876   73.3703   79.1149 H        1 UNK          0.0000
   73 C        87.0229   83.6518   70.4416 C.3      1 UNK          0.0000
   74 H        86.2290   82.9088   70.2839 H        1 UNK          0.0000
   75 O        87.2225   84.4294   69.2622 O.3      1 UNK          0.0000
   76 H        87.4270   83.8246   68.5253 H        1 UNK          0.0000
   77 C        86.6225   84.5599   71.6186 C.3      1 UNK          0.0000
   78 H        87.1231   85.5335   71.5206 H        1 UNK          0.0000
   79 O        85.1996   84.7085   71.6727 O.3      1 UNK          0.0000
   80 H        84.9212   85.1111   70.8282 H        1 UNK          0.0000
@<TRIPOS>BOND
     1     1     2   1 
     2     1     3   1 
     3     1     4   am
     4     4     5   2 
     5     4     6   1 
     6     6     7   ar
     7     6    14   ar
     8     7     8   1 
     9     7     9   ar
    10     9    10   1 
    11     9    11   ar
    12    11    12   1 
    13    11    13   ar
    14    13    14   ar
    15    13    16   1 
    16    14    15   1 
    17    16    17   1 
    18    16    18   1 
    19    16    77   1 
    20    18    19   1 
    21    19    20   1 
    22    19    21   1 
    23    19    73   1 
    24    21    22   1 
    25    21    23   1 
    26    21    24   1 
    27    24    25   1 
    28    25    26   1 
    29    25    28   1 
    30    25    30   1 
    31    26    27   1 
    32    28    29   1 
    33    30    31   1 
    34    31    32   1 
    35    31    34   1 
    36    31    36   1 
    37    32    33   1 
    38    34    35   1 
    39    36    37   1 
    40    37    38   1 
    41    37    39   1 
    42    37    40   1 
    43    40    41   1 
    44    40    42   1 
    45    40    55   1 
    46    42    43   1 
    47    43    44   1 
    48    43    45   1 
    49    43    59   1 
    50    45    46   1 
    51    45    47   1 
    52    45    55   1 
    53    47    48   1 
    54    48    49   1 
    55    48    51   1 
    56    48    53   1 
    57    49    50   1 
    58    51    52   1 
    59    53    54   1 
    60    55    56   1 
    61    55    57   1 
    62    57    58   1 
    63    59    60   1 
    64    59    64   1 
    65    60    61   1 
    66    60    62   2 
    67    62    63   1 
    68    63    64   ar
    69    63    69   ar
    70    64    65   ar
    71    65    66   ar
    72    66    67   1 
    73    66    68   ar
    74    68    69   ar
    75    69    70   1 
    76    70    71   1 
    77    70    72   1 
    78    73    74   1 
    79    73    75   1 
    80    73    77   1 
    81    75    76   1 
    82    77    78   1 
    83    77    79   1 
    84    79    80   1 
 
