inp11.mol2
     Hgene          

 48 52  0  0  0  0               V2000
   90.3746   83.8450   77.4062 N   0  0  0  0  0
   91.0370   85.0663   77.4632 C   0  0  0  0  0
   90.3981   86.0303   77.0430 O   0  0  0  0  0
   92.4399   85.1999   77.9673 C   0  0  0  0  0
   93.2168   86.3944   77.8400 C   0  0  0  0  0
   94.5476   86.4765   78.2762 C   0  0  0  0  0
   95.1744   85.3342   78.9179 C   0  0  0  0  0
   94.4175   84.1315   79.0592 N   0  0  0  0  0
   93.1032   84.0560   78.5958 C   0  0  0  0  0
   95.0364   82.9167   79.7116 C   0  0  0  0  0
   94.2450   81.7157   79.6785 O   0  0  0  0  0
   94.9193   80.7294   80.5148 C   0  0  0  0  0
   96.0030   79.9101   79.7571 C   0  0  0  0  0
   96.9573   80.7149   79.0453 O   0  0  0  0  0
   96.8411   81.0023   77.4607 P   0  0  2  0  0
   97.5337   82.4202   77.1641 O   0  0  0  0  0
   95.3015   81.1012   76.9919 O   0  0  0  0  0
   97.6069   79.8445   76.6480 O   0  0  0  0  0
   96.9803   78.4862   76.0534 P   0  0  1  0  0
   96.2729   78.7719   74.6353 O   0  0  0  0  0
   98.1771   77.4233   75.8957 O   0  0  0  0  0
   95.8846   77.8876   77.0820 O   0  0  0  0  0
   95.6125   76.4741   77.1520 C   0  0  0  0  0
   95.0645   75.8432   75.8612 C   0  0  0  0  0
   93.6733   76.1816   75.7239 O   0  0  0  0  0
   93.1777   75.3159   74.6800 C   0  0  0  0  0
   93.8631   73.9481   75.0086 C   0  0  0  0  0
   93.0509   73.0018   75.7507 O   0  0  0  0  0
   92.0319   73.3973   76.9477 P   0  0  2  0  0
   92.4667   74.6611   77.8429 O   0  0  0  0  0
   91.8096   72.1739   77.9036 O   0  0  0  0  0
   90.6333   73.6567   76.2552 O   0  0  0  0  0
   94.9912   74.3168   75.9739 C   0  0  0  0  0
   96.1819   73.6033   75.6612 O   0  0  0  0  0
   93.4013   75.9314   73.3389 N   0  0  0  0  0
   93.6795   77.2796   73.0325 C   0  0  0  0  0
   93.7152   77.5507   71.7182 N   0  0  0  0  0
   93.4700   76.3483   71.1552 C   0  0  0  0  0
   93.3304   75.3381   72.1112 C   0  0  0  0  0
   93.1120   74.0254   71.7404 N   0  0  0  0  0
   92.9317   73.7720   70.3789 C   0  0  0  0  0
   93.0944   74.6906   69.3647 N   0  0  0  0  0
   93.3486   75.9918   69.7503 C   0  0  0  0  0
   93.4811   76.8889   68.7299 N   0  0  0  0  0
   95.6205   81.5956   81.5939 C   0  0  0  0  0
   95.4430   81.5325   83.0218 O   0  0  0  0  0
   95.1174   82.9839   81.2027 C   0  0  0  0  0
   96.0476   83.9649   81.6380 O   0  0  0  0  0
  1  2  1  0
  2  3  2  0
  2  4  1  0
  4  5  4  0
  4  9  4  0
  5  6  4  0
  6  7  4  0
  7  8  4  0
  8  9  4  0
  8 10  1  0
 10 11  1  0
 10 47  1  0
 11 12  1  0
 12 13  1  0
 12 45  1  0
 13 14  1  0
 14 15  1  0
 15 16  1  0
 15 17  1  0
 15 18  1  0
 18 19  1  0
 19 20  1  0
 19 21  1  0
 19 22  1  0
 22 23  1  0
 23 24  1  0
 24 25  1  0
 24 33  1  0
 25 26  1  0
 26 27  1  0
 26 35  1  0
 27 28  1  0
 27 33  1  0
 28 29  1  0
 29 30  1  0
 29 31  1  0
 29 32  1  0
 33 34  1  0
 35 36  1  0
 35 39  1  0
 36 37  2  0
 37 38  1  0
 38 39  4  0
 38 43  4  0
 39 40  4  0
 40 41  4  0
 41 42  4  0
 42 43  4  0
 43 44  1  0
 45 46  1  0
 45 47  1  0
 47 48  1  0
M  END
$$$$
