@<TRIPOS>COMMENT
   inp11.mol2             10    of   10
                  SCORE =  -281.7042
               dG-SCORE =    -6.9483
      LIGAND_EFFICIENCY =    -0.5869
  NUMBER_OF_HEAVY_ATOMS =         48
                    ASA =  -152.3322
                    ELE =     0.0000
                    HYD =  -129.3720
                    VDW =     0.0000
                   RMSD =    32.1541
 MOLECULAR_WEIGHT = 747.44
@<TRIPOS>MOLECULE
inp11.mol2                                                                      
   80   84    0    0    0
SMALL       
GASTEIGER      
 
@<TRIPOS>ATOM
    1 N        91.5138   75.6101   77.3061 N.am     1 UNK          0.0000
    2 H        91.3825   75.8360   76.3324 H        1 UNK          0.0000
    3 H        90.7345   75.6868   77.9455 H        1 UNK          0.0000
    4 C        92.7413   75.2172   77.7989 C.2      1 UNK          0.0000
    5 O        92.8104   74.9808   78.9896 O.2      1 UNK          0.0000
    6 C        93.9412   75.0866   76.8952 C.ar     1 UNK          0.0000
    7 C        95.1950   74.7504   77.4354 C.ar     1 UNK          0.0000
    8 H        95.3113   74.5813   78.5030 H        1 UNK          0.0000
    9 C        96.3096   74.6362   76.5956 C.ar     1 UNK          0.0000
   10 H        97.2794   74.3799   77.0163 H        1 UNK          0.0000
   11 C        96.1818   74.8541   75.2156 C.ar     1 UNK          0.0000
   12 H        97.0476   74.7767   74.5534 H        1 UNK          0.0000
   13 N        94.9401   75.1886   74.6520 N.ar     1 UNK          0.0000
   14 C        93.8238   75.2994   75.5058 C.ar     1 UNK          0.0000
   15 H        92.8613   75.5571   75.0630 H        1 UNK          0.0000
   16 C        94.8626   75.5058   73.2043 C.3      1 UNK          0.0000
   17 H        95.6194   76.2685   72.9826 H        1 UNK          0.0000
   18 O        93.5501   75.9716   72.8395 O.3      1 UNK          0.0000
   19 C        93.4427   75.9678   71.3941 C.3      1 UNK          0.0000
   20 H        92.4214   75.6864   71.1027 H        1 UNK          0.0000
   21 C        93.7594   77.3758   70.8009 C.3      1 UNK          0.0000
   22 H        93.8267   77.2973   69.7083 H        1 UNK          0.0000
   23 H        92.9354   78.0633   71.0288 H        1 UNK          0.0000
   24 O        95.0059   77.8854   71.3229 O.3      1 UNK          0.0000
   25 P        95.0756   78.9706   72.5251 P.3      1 UNK          0.0000
   26 O        96.4157   78.6974   73.3715 O.3      1 UNK          0.0000
   27 H        96.5111   79.3970   74.0410 H        1 UNK          0.0000
   28 O        93.8271   78.8042   73.5257 O.3      1 UNK          0.0000
   29 H        93.0179   79.1023   73.0701 H        1 UNK          0.0000
   30 O        95.1176   80.4645   71.9267 O.3      1 UNK          0.0000
   31 P        93.8650   81.4598   71.7537 P.3      1 UNK          0.0000
   32 O        93.5952   82.2441   73.1302 O.3      1 UNK          0.0000
   33 H        94.3776   82.7714   73.3651 H        1 UNK          0.0000
   34 O        94.2179   82.4998   70.5782 O.3      1 UNK          0.0000
   35 H        95.0216   82.9959   70.8073 H        1 UNK          0.0000
   36 O        92.5610   80.5969   71.3294 O.3      1 UNK          0.0000
   37 C        91.5736   81.1030   70.4033 C.3      1 UNK          0.0000
   38 H        92.0617   81.4261   69.4751 H        1 UNK          0.0000
   39 H        90.8625   80.3074   70.1481 H        1 UNK          0.0000
   40 C        90.8045   82.2964   71.0250 C.3      1 UNK          0.0000
   41 H        91.4936   83.0398   71.4450 H        1 UNK          0.0000
   42 O        89.8971   81.8114   72.0371 O.3      1 UNK          0.0000
   43 C        88.9698   82.8805   72.3302 C.3      1 UNK          0.0000
   44 H        88.0405   82.4813   72.7505 H        1 UNK          0.0000
   45 C        88.7417   83.5623   70.9435 C.3      1 UNK          0.0000
   46 H        88.8645   84.6486   71.0347 H        1 UNK          0.0000
   47 O        87.4324   83.2629   70.3869 O.3      1 UNK          0.0000
   48 P        86.7004   81.8153   70.4241 P.3      1 UNK          0.0000
   49 O        87.7673   80.6166   70.3232 O.3      1 UNK          0.0000
   50 H        88.3800   80.6753   71.0775 H        1 UNK          0.0000
   51 O        85.6935   81.7283   69.1791 O.3      1 UNK          0.0000
   52 H        85.0607   82.4647   69.2281 H        1 UNK          0.0000
   53 O        85.8625   81.6763   71.7876 O.3      1 UNK          0.0000
   54 H        85.3793   80.8328   71.7793 H        1 UNK          0.0000
   55 C        89.8518   82.9852   70.0354 C.3      1 UNK          0.0000
   56 H        89.4293   82.2351   69.3565 H        1 UNK          0.0000
   57 O        90.5174   83.9937   69.2732 O.3      1 UNK          0.0000
   58 H        89.8589   84.3921   68.6750 H        1 UNK          0.0000
   59 N        89.5488   83.7600   73.3611 N.ar     1 UNK          0.0000
   60 C        90.6451   83.5142   74.2054 C.ar     1 UNK          0.0000
   61 H        91.2329   82.6096   74.1224 H        1 UNK          0.0000
   62 N        90.8472   84.4907   75.1034 N.ar     1 UNK          0.0000
   63 C        89.8364   85.3519   74.8378 C.ar     1 UNK          0.0000
   64 C        89.0322   84.9431   73.8087 C.ar     1 UNK          0.0000
   65 N        87.9594   85.6513   73.4037 N.ar     1 UNK          0.0000
   66 C        87.7413   86.8006   74.0865 C.ar     1 UNK          0.0000
   67 H        86.8798   87.3924   73.7802 H        1 UNK          0.0000
   68 N        88.4801   87.2920   75.1124 N.ar     1 UNK          0.0000
   69 C        89.5460   86.5596   75.4999 C.ar     1 UNK          0.0000
   70 N        90.3224   87.0108   76.5405 N.pl3    1 UNK          0.0000
   71 H        91.2220   86.5754   76.6823 H        1 UNK          0.0000
   72 H        90.1928   87.9645   76.8453 H        1 UNK          0.0000
   73 C        94.4471   74.8689   70.9354 C.3      1 UNK          0.0000
   74 H        95.2503   75.3255   70.3403 H        1 UNK          0.0000
   75 O        93.8093   73.8303   70.1927 O.3      1 UNK          0.0000
   76 H        93.9075   74.0254   69.2430 H        1 UNK          0.0000
   77 C        95.0348   74.3184   72.2493 C.3      1 UNK          0.0000
   78 H        94.4155   73.4820   72.6016 H        1 UNK          0.0000
   79 O        96.3982   73.9115   72.1213 O.3      1 UNK          0.0000
   80 H        96.4391   73.2294   71.4241 H        1 UNK          0.0000
@<TRIPOS>BOND
     1     1     2   1 
     2     1     3   1 
     3     1     4   am
     4     4     5   2 
     5     4     6   1 
     6     6     7   ar
     7     6    14   ar
     8     7     8   1 
     9     7     9   ar
    10     9    10   1 
    11     9    11   ar
    12    11    12   1 
    13    11    13   ar
    14    13    14   ar
    15    13    16   1 
    16    14    15   1 
    17    16    17   1 
    18    16    18   1 
    19    16    77   1 
    20    18    19   1 
    21    19    20   1 
    22    19    21   1 
    23    19    73   1 
    24    21    22   1 
    25    21    23   1 
    26    21    24   1 
    27    24    25   1 
    28    25    26   1 
    29    25    28   1 
    30    25    30   1 
    31    26    27   1 
    32    28    29   1 
    33    30    31   1 
    34    31    32   1 
    35    31    34   1 
    36    31    36   1 
    37    32    33   1 
    38    34    35   1 
    39    36    37   1 
    40    37    38   1 
    41    37    39   1 
    42    37    40   1 
    43    40    41   1 
    44    40    42   1 
    45    40    55   1 
    46    42    43   1 
    47    43    44   1 
    48    43    45   1 
    49    43    59   1 
    50    45    46   1 
    51    45    47   1 
    52    45    55   1 
    53    47    48   1 
    54    48    49   1 
    55    48    51   1 
    56    48    53   1 
    57    49    50   1 
    58    51    52   1 
    59    53    54   1 
    60    55    56   1 
    61    55    57   1 
    62    57    58   1 
    63    59    60   1 
    64    59    64   1 
    65    60    61   1 
    66    60    62   2 
    67    62    63   1 
    68    63    64   ar
    69    63    69   ar
    70    64    65   ar
    71    65    66   ar
    72    66    67   1 
    73    66    68   ar
    74    68    69   ar
    75    69    70   1 
    76    70    71   1 
    77    70    72   1 
    78    73    74   1 
    79    73    75   1 
    80    73    77   1 
    81    75    76   1 
    82    77    78   1 
    83    77    79   1 
    84    79    80   1 
 
