#  inp11.mol2              1    of   10
#                 SCORE =  -375.6107
#              dG-SCORE =    -7.9519
#     LIGAND_EFFICIENCY =    -0.7825
# NUMBER_OF_HEAVY_ATOMS =         48
#                   ASA =  -299.7467
#                   ELE =     0.0000
#                   HYD =   -60.2611
#                   VDW =   -15.6030
#                  RMSD =    29.7291
@<TRIPOS>MOLECULE
inp11.mol2                                                                      
   80   84    0    0    0
SMALL       
GASTEIGER      
 
@<TRIPOS>ATOM
    1 N        94.6834   77.1553   70.4413 N.am     1 UNK          0.0000
    2 H        95.0536   77.2189   71.3808 H        1 UNK          0.0000
    3 H        94.7328   77.9677   69.8359 H        1 UNK          0.0000
    4 C        94.1376   75.9958   69.9616 C.2      1 UNK          0.0000
    5 O        93.6908   76.0213   68.8283 O.2      1 UNK          0.0000
    6 C        94.1073   74.7170   70.7961 C.ar     1 UNK          0.0000
    7 C        93.6634   73.4963   70.2679 C.ar     1 UNK          0.0000
    8 H        93.2371   73.4422   69.2564 H        1 UNK          0.0000
    9 C        93.6789   72.2865   71.0522 C.ar     1 UNK          0.0000
   10 H        93.2634   71.3782   70.6668 H        1 UNK          0.0000
   11 C        94.1116   72.3808   72.4366 C.ar     1 UNK          0.0000
   12 H        94.0553   71.4914   73.0907 H        1 UNK          0.0000
   13 N        94.4528   73.6224   73.0013 N.ar     1 UNK          0.0000
   14 C        94.5226   74.7972   72.1780 C.ar     1 UNK          0.0000
   15 H        94.8571   75.7185   72.6095 H        1 UNK          0.0000
   16 C        94.7006   73.7278   74.4737 C.3      1 UNK          0.0000
   17 H        93.7492   73.6513   75.0204 H        1 UNK          0.0000
   18 O        95.4069   74.9322   74.8055 O.3      1 UNK          0.0000
   19 C        96.0207   74.7868   76.1015 C.3      1 UNK          0.0000
   20 H        96.9799   75.3198   76.1352 H        1 UNK          0.0000
   21 C        95.1746   75.2605   77.2956 C.3      1 UNK          0.0000
   22 H        95.7433   75.0362   78.1975 H        1 UNK          0.0000
   23 H        94.9988   76.3433   77.2417 H        1 UNK          0.0000
   24 O        93.9437   74.5548   77.3850 O.3      1 UNK          0.0000
   25 P        92.6631   75.2592   76.7707 P.3      1 UNK          0.0000
   26 O        91.8240   74.0614   76.1418 O.3      1 UNK          0.0000
   27 H        91.0663   74.4612   75.6713 H        1 UNK          0.0000
   28 O        93.0043   76.3445   75.6271 O.3      1 UNK          0.0000
   29 H        93.3681   77.1458   76.0438 H        1 UNK          0.0000
   30 O        91.9165   75.9561   77.9761 O.3      1 UNK          0.0000
   31 P        92.0803   77.4598   78.4340 P.3      1 UNK          0.0000
   32 O        91.0361   78.3138   77.6010 O.3      1 UNK          0.0000
   33 H        90.1707   77.8759   77.6104 H        1 UNK          0.0000
   34 O        91.7827   77.3230   79.9763 O.3      1 UNK          0.0000
   35 H        90.8701   76.9930   80.0700 H        1 UNK          0.0000
   36 O        93.5520   78.0846   78.2563 O.3      1 UNK          0.0000
   37 C        94.0054   79.1623   79.1052 C.3      1 UNK          0.0000
   38 H        93.8743   78.8517   80.1361 H        1 UNK          0.0000
   39 H        95.0780   79.3105   78.9477 H        1 UNK          0.0000
   40 C        93.2663   80.5191   78.9255 C.3      1 UNK          0.0000
   41 H        92.1755   80.4301   79.0111 H        1 UNK          0.0000
   42 O        93.6439   81.1400   77.6807 O.3      1 UNK          0.0000
   43 C        93.2977   82.5518   77.7421 C.3      1 UNK          0.0000
   44 H        93.9228   83.1190   77.0441 H        1 UNK          0.0000
   45 C        93.6361   82.9227   79.2168 C.3      1 UNK          0.0000
   46 H        92.8219   83.4992   79.6496 H        1 UNK          0.0000
   47 O        94.8625   83.6712   79.3938 O.3      1 UNK          0.0000
   48 P        96.2363   83.4645   78.5624 P.3      1 UNK          0.0000
   49 O        96.6391   81.9124   78.4257 O.3      1 UNK          0.0000
   50 H        95.9416   81.4641   77.9096 H        1 UNK          0.0000
   51 O        97.3657   84.2631   79.3188 O.3      1 UNK          0.0000
   52 H        97.0672   85.1726   79.4710 H        1 UNK          0.0000
   53 O        96.1263   84.1610   77.1278 O.3      1 UNK          0.0000
   54 H        97.0122   84.1677   76.7265 H        1 UNK          0.0000
   55 C        93.7671   81.5675   79.9200 C.3      1 UNK          0.0000
   56 H        94.8195   81.3654   80.1570 H        1 UNK          0.0000
   57 O        92.9979   81.6201   81.0920 O.3      1 UNK          0.0000
   58 H        93.4034   82.3249   81.6287 H        1 UNK          0.0000
   59 N        91.9057   82.8009   77.3025 N.ar     1 UNK          0.0000
   60 C        91.1072   81.9145   76.5610 C.ar     1 UNK          0.0000
   61 H        91.5096   80.9719   76.2278 H        1 UNK          0.0000
   62 N        89.8668   82.3528   76.3378 N.ar     1 UNK          0.0000
   63 C        89.9140   83.6227   76.7995 C.ar     1 UNK          0.0000
   64 C        91.1473   83.9380   77.3849 C.ar     1 UNK          0.0000
   65 N        91.4184   85.2226   77.8663 N.ar     1 UNK          0.0000
   66 C        90.4282   86.1739   77.6312 C.ar     1 UNK          0.0000
   67 H        90.6791   87.2231   77.7868 H        1 UNK          0.0000
   68 N        89.1484   85.9211   77.1706 N.ar     1 UNK          0.0000
   69 C        88.9078   84.6407   76.6799 C.ar     1 UNK          0.0000
   70 N        87.7212   84.4131   76.0249 N.pl3    1 UNK          0.0000
   71 H        87.5146   83.4878   75.6802 H        1 UNK          0.0000
   72 H        87.0813   85.1719   75.8746 H        1 UNK          0.0000
   73 C        96.2178   73.2716   76.2184 C.3      1 UNK          0.0000
   74 H        95.6829   72.8884   77.0992 H        1 UNK          0.0000
   75 O        97.5939   73.0083   76.2884 O.3      1 UNK          0.0000
   76 H        97.8900   73.3885   77.1359 H        1 UNK          0.0000
   77 C        95.6475   72.6565   74.9503 C.3      1 UNK          0.0000
   78 H        96.4306   72.6068   74.1858 H        1 UNK          0.0000
   79 O        95.0417   71.3933   75.2104 O.3      1 UNK          0.0000
   80 H        95.7484   70.8187   75.5564 H        1 UNK          0.0000
@<TRIPOS>BOND
     1     1     2   1 
     2     1     3   1 
     3     1     4   am
     4     4     5   2 
     5     4     6   1 
     6     6     7   ar
     7     6    14   ar
     8     7     8   1 
     9     7     9   ar
    10     9    10   1 
    11     9    11   ar
    12    11    12   1 
    13    11    13   ar
    14    13    14   ar
    15    13    16   1 
    16    14    15   1 
    17    16    17   1 
    18    16    18   1 
    19    16    77   1 
    20    18    19   1 
    21    19    20   1 
    22    19    21   1 
    23    19    73   1 
    24    21    22   1 
    25    21    23   1 
    26    21    24   1 
    27    24    25   1 
    28    25    26   1 
    29    25    28   1 
    30    25    30   1 
    31    26    27   1 
    32    28    29   1 
    33    30    31   1 
    34    31    32   1 
    35    31    34   1 
    36    31    36   1 
    37    32    33   1 
    38    34    35   1 
    39    36    37   1 
    40    37    38   1 
    41    37    39   1 
    42    37    40   1 
    43    40    41   1 
    44    40    42   1 
    45    40    55   1 
    46    42    43   1 
    47    43    44   1 
    48    43    45   1 
    49    43    59   1 
    50    45    46   1 
    51    45    47   1 
    52    45    55   1 
    53    47    48   1 
    54    48    49   1 
    55    48    51   1 
    56    48    53   1 
    57    49    50   1 
    58    51    52   1 
    59    53    54   1 
    60    55    56   1 
    61    55    57   1 
    62    57    58   1 
    63    59    60   1 
    64    59    64   1 
    65    60    61   1 
    66    60    62   2 
    67    62    63   1 
    68    63    64   ar
    69    63    69   ar
    70    64    65   ar
    71    65    66   ar
    72    66    67   1 
    73    66    68   ar
    74    68    69   ar
    75    69    70   1 
    76    70    71   1 
    77    70    72   1 
    78    73    74   1 
    79    73    75   1 
    80    73    77   1 
    81    75    76   1 
    82    77    78   1 
    83    77    79   1 
    84    79    80   1 
#MOLECULE END
 
#  inp11.mol2              2    of   10
#                 SCORE =  -369.7880
#              dG-SCORE =    -7.5746
#     LIGAND_EFFICIENCY =    -0.7704
# NUMBER_OF_HEAVY_ATOMS =         48
#                   ASA =  -309.4357
#                   ELE =     0.0000
#                   HYD =   -44.8749
#                   VDW =   -15.4773
#                  RMSD =    29.6344
@<TRIPOS>MOLECULE
inp11.mol2                                                                      
   80   84    0    0    0
SMALL       
GASTEIGER      
 
@<TRIPOS>ATOM
    1 N        86.8557   80.5161   71.8567 N.am     1 UNK          0.0000
    2 H        87.5338   80.3626   72.5945 H        1 UNK          0.0000
    3 H        86.3552   79.7294   71.4928 H        1 UNK          0.0000
    4 C        86.5649   81.7701   71.3864 C.2      1 UNK          0.0000
    5 O        85.7642   81.8138   70.4574 O.2      1 UNK          0.0000
    6 C        87.1864   82.9981   71.9960 C.ar     1 UNK          0.0000
    7 C        87.0356   84.3004   71.4582 C.ar     1 UNK          0.0000
    8 H        86.4253   84.4488   70.5502 H        1 UNK          0.0000
    9 C        87.6803   85.4318   72.0180 C.ar     1 UNK          0.0000
   10 H        87.6219   86.4028   71.5605 H        1 UNK          0.0000
   11 C        88.4650   85.2585   73.2337 C.ar     1 UNK          0.0000
   12 H        88.9684   86.1119   73.6779 H        1 UNK          0.0000
   13 N        88.5838   83.9818   73.8214 N.ar     1 UNK          0.0000
   14 C        88.0048   82.8503   73.2085 C.ar     1 UNK          0.0000
   15 H        88.1634   81.8781   73.6460 H        1 UNK          0.0000
   16 C        89.3578   83.8415   75.1162 C.3      1 UNK          0.0000
   17 H        90.4011   84.1028   74.9138 H        1 UNK          0.0000
   18 O        89.2636   82.5304   75.7097 O.3      1 UNK          0.0000
   19 C        89.9124   82.5993   77.0103 C.3      1 UNK          0.0000
   20 H        89.3902   81.9652   77.7317 H        1 UNK          0.0000
   21 C        91.4341   82.1993   77.0168 C.3      1 UNK          0.0000
   22 H        91.8379   82.3712   78.0233 H        1 UNK          0.0000
   23 H        91.5577   81.1296   76.8142 H        1 UNK          0.0000
   24 O        92.2054   82.9504   76.0511 O.3      1 UNK          0.0000
   25 P        92.5758   82.4253   74.5548 P.3      1 UNK          0.0000
   26 O        92.5840   83.7038   73.5794 O.3      1 UNK          0.0000
   27 H        92.8523   83.4159   72.6885 H        1 UNK          0.0000
   28 O        91.4931   81.3804   73.9739 O.3      1 UNK          0.0000
   29 H        91.5470   80.5538   74.4909 H        1 UNK          0.0000
   30 O        94.0513   81.7779   74.5465 O.3      1 UNK          0.0000
   31 P        94.4598   80.2330   74.7385 P.3      1 UNK          0.0000
   32 O        94.3945   79.4826   73.3171 O.3      1 UNK          0.0000
   33 H        94.9982   79.9198   72.6897 H        1 UNK          0.0000
   34 O        95.9676   80.1953   75.3054 O.3      1 UNK          0.0000
   35 H        96.5719   80.6192   74.6732 H        1 UNK          0.0000
   36 O        93.4507   79.5401   75.8118 O.3      1 UNK          0.0000
   37 C        93.8355   78.4351   76.6625 C.3      1 UNK          0.0000
   38 H        94.6616   78.7535   77.3104 H        1 UNK          0.0000
   39 H        92.9945   78.1498   77.3095 H        1 UNK          0.0000
   40 C        94.2894   77.2071   75.8297 C.3      1 UNK          0.0000
   41 H        94.9597   77.4802   75.0061 H        1 UNK          0.0000
   42 O        93.1285   76.5084   75.3432 O.3      1 UNK          0.0000
   43 C        93.5791   75.2090   74.8853 C.3      1 UNK          0.0000
   44 H        92.7880   74.4701   74.9138 H        1 UNK          0.0000
   45 C        94.6744   74.8154   75.9249 C.3      1 UNK          0.0000
   46 H        95.5704   74.4263   75.4303 H        1 UNK          0.0000
   47 O        94.2082   73.8992   76.9449 O.3      1 UNK          0.0000
   48 P        92.7451   74.0059   77.6190 P.3      1 UNK          0.0000
   49 O        92.2196   75.5007   77.8826 O.3      1 UNK          0.0000
   50 H        92.1378   75.9462   77.0210 H        1 UNK          0.0000
   51 O        92.7685   73.2708   78.9948 O.3      1 UNK          0.0000
   52 H        92.8679   72.3250   78.7939 H        1 UNK          0.0000
   53 O        91.8026   73.2185   76.6161 O.3      1 UNK          0.0000
   54 H        90.9254   73.1466   76.9982 H        1 UNK          0.0000
   55 C        94.9522   76.1219   76.6737 C.3      1 UNK          0.0000
   56 H        94.3833   76.0722   77.6067 H        1 UNK          0.0000
   57 O        96.3446   76.3006   76.9277 O.3      1 UNK          0.0000
   58 H        96.6542   75.4827   77.3578 H        1 UNK          0.0000
   59 N        93.9689   75.2333   73.4726 N.ar     1 UNK          0.0000
   60 C        93.7891   76.2495   72.5134 C.ar     1 UNK          0.0000
   61 H        93.3115   77.1879   72.7647 H        1 UNK          0.0000
   62 N        94.2709   75.9280   71.3083 N.ar     1 UNK          0.0000
   63 C        94.7205   74.6583   71.4938 C.ar     1 UNK          0.0000
   64 C        94.5429   74.1993   72.8009 C.ar     1 UNK          0.0000
   65 N        94.9077   72.9206   73.2128 N.ar     1 UNK          0.0000
   66 C        95.3645   72.0903   72.2071 C.ar     1 UNK          0.0000
   67 H        95.4912   71.0476   72.4441 H        1 UNK          0.0000
   68 N        95.6522   72.4636   70.9052 N.ar     1 UNK          0.0000
   69 C        95.3374   73.7674   70.5434 C.ar     1 UNK          0.0000
   70 N        95.6443   74.1823   69.2715 N.pl3    1 UNK          0.0000
   71 H        95.4270   75.1300   68.9948 H        1 UNK          0.0000
   72 H        96.0921   73.5478   68.6299 H        1 UNK          0.0000
   73 C        89.6279   84.0607   77.4048 C.3      1 UNK          0.0000
   74 H        90.5594   84.6183   77.5666 H        1 UNK          0.0000
   75 O        88.7522   84.0893   78.5074 O.3      1 UNK          0.0000
   76 H        89.2023   83.6495   79.2305 H        1 UNK          0.0000
   77 C        88.8238   84.6664   76.2687 C.3      1 UNK          0.0000
   78 H        87.7694   84.4028   76.4081 H        1 UNK          0.0000
   79 O        89.0042   86.0862   76.2113 O.3      1 UNK          0.0000
   80 H        88.8376   86.4381   77.1073 H        1 UNK          0.0000
@<TRIPOS>BOND
     1     1     2   1 
     2     1     3   1 
     3     1     4   am
     4     4     5   2 
     5     4     6   1 
     6     6     7   ar
     7     6    14   ar
     8     7     8   1 
     9     7     9   ar
    10     9    10   1 
    11     9    11   ar
    12    11    12   1 
    13    11    13   ar
    14    13    14   ar
    15    13    16   1 
    16    14    15   1 
    17    16    17   1 
    18    16    18   1 
    19    16    77   1 
    20    18    19   1 
    21    19    20   1 
    22    19    21   1 
    23    19    73   1 
    24    21    22   1 
    25    21    23   1 
    26    21    24   1 
    27    24    25   1 
    28    25    26   1 
    29    25    28   1 
    30    25    30   1 
    31    26    27   1 
    32    28    29   1 
    33    30    31   1 
    34    31    32   1 
    35    31    34   1 
    36    31    36   1 
    37    32    33   1 
    38    34    35   1 
    39    36    37   1 
    40    37    38   1 
    41    37    39   1 
    42    37    40   1 
    43    40    41   1 
    44    40    42   1 
    45    40    55   1 
    46    42    43   1 
    47    43    44   1 
    48    43    45   1 
    49    43    59   1 
    50    45    46   1 
    51    45    47   1 
    52    45    55   1 
    53    47    48   1 
    54    48    49   1 
    55    48    51   1 
    56    48    53   1 
    57    49    50   1 
    58    51    52   1 
    59    53    54   1 
    60    55    56   1 
    61    55    57   1 
    62    57    58   1 
    63    59    60   1 
    64    59    64   1 
    65    60    61   1 
    66    60    62   2 
    67    62    63   1 
    68    63    64   ar
    69    63    69   ar
    70    64    65   ar
    71    65    66   ar
    72    66    67   1 
    73    66    68   ar
    74    68    69   ar
    75    69    70   1 
    76    70    71   1 
    77    70    72   1 
    78    73    74   1 
    79    73    75   1 
    80    73    77   1 
    81    75    76   1 
    82    77    78   1 
    83    77    79   1 
    84    79    80   1 
#MOLECULE END
 
#  inp11.mol2              3    of   10
#                 SCORE =  -306.1085
#              dG-SCORE =    -6.0109
#     LIGAND_EFFICIENCY =    -0.6377
# NUMBER_OF_HEAVY_ATOMS =         48
#                   ASA =  -242.3380
#                   ELE =     0.0000
#                   HYD =   -49.2556
#                   VDW =   -14.5148
#                  RMSD =    30.8355
@<TRIPOS>MOLECULE
inp11.mol2                                                                      
   80   84    0    0    0
SMALL       
GASTEIGER      
 
@<TRIPOS>ATOM
    1 N        96.4967   77.2339   69.8984 N.am     1 UNK          0.0000
    2 H        96.5190   77.5703   70.8451 H        1 UNK          0.0000
    3 H        96.5705   77.9001   69.1328 H        1 UNK          0.0000
    4 C        96.3650   75.8925   69.5909 C.2      1 UNK          0.0000
    5 O        96.3448   75.5991   68.4224 O.2      1 UNK          0.0000
    6 C        96.2433   74.8400   70.7141 C.ar     1 UNK          0.0000
    7 C        96.0708   73.4474   70.4000 C.ar     1 UNK          0.0000
    8 H        96.0492   73.0885   69.3925 H        1 UNK          0.0000
    9 C        95.9157   72.5060   71.4936 C.ar     1 UNK          0.0000
   10 H        95.7823   71.4531   71.2527 H        1 UNK          0.0000
   11 C        95.9377   72.9659   72.8191 C.ar     1 UNK          0.0000
   12 H        95.7944   72.2785   73.6710 H        1 UNK          0.0000
   13 N        96.1577   74.3452   73.1583 N.ar     1 UNK          0.0000
   14 C        96.3015   75.2667   72.0449 C.ar     1 UNK          0.0000
   15 H        96.4604   76.3130   72.3157 H        1 UNK          0.0000
   16 C        96.2427   74.8074   74.5376 C.3      1 UNK          0.0000
   17 H        95.3298   74.4856   75.0659 H        1 UNK          0.0000
   18 O        96.4747   76.2273   74.7171 O.3      1 UNK          0.0000
   19 C        96.7267   76.5011   76.1190 C.3      1 UNK          0.0000
   20 H        97.3933   77.3646   76.2302 H        1 UNK          0.0000
   21 C        95.4234   76.7835   76.9221 C.3      1 UNK          0.0000
   22 H        95.6870   76.9461   77.9622 H        1 UNK          0.0000
   23 H        94.9268   77.6942   76.5661 H        1 UNK          0.0000
   24 O        94.5447   75.6550   76.8094 O.3      1 UNK          0.0000
   25 P        93.3587   75.6732   75.7286 P.3      1 UNK          0.0000
   26 O        93.1353   74.1777   75.1895 O.3      1 UNK          0.0000
   27 H        92.4225   74.1973   74.5276 H        1 UNK          0.0000
   28 O        93.5998   76.6242   74.4474 O.3      1 UNK          0.0000
   29 H        93.5335   77.5553   74.7332 H        1 UNK          0.0000
   30 O        92.1360   76.2090   76.5798 O.3      1 UNK          0.0000
   31 P        91.6403   77.7135   76.7198 P.3      1 UNK          0.0000
   32 O        90.7985   78.1883   75.4165 O.3      1 UNK          0.0000
   33 H        89.9878   77.6642   75.2869 H        1 UNK          0.0000
   34 O        90.8568   77.5659   78.1163 O.3      1 UNK          0.0000
   35 H        90.0366   77.0575   77.9817 H        1 UNK          0.0000
   36 O        92.8444   78.7757   76.8878 O.3      1 UNK          0.0000
   37 C        92.6657   80.0911   77.4747 C.3      1 UNK          0.0000
   38 H        92.2924   79.9516   78.4976 H        1 UNK          0.0000
   39 H        93.6425   80.5759   77.5478 H        1 UNK          0.0000
   40 C        91.6990   81.0637   76.7272 C.3      1 UNK          0.0000
   41 H        90.7526   80.5882   76.4634 H        1 UNK          0.0000
   42 O        92.2330   81.6587   75.5296 O.3      1 UNK          0.0000
   43 C        91.3246   82.7398   75.1701 C.3      1 UNK          0.0000
   44 H        91.8397   83.4449   74.5068 H        1 UNK          0.0000
   45 C        91.0145   83.4004   76.5621 C.3      1 UNK          0.0000
   46 H        89.9433   83.6329   76.6281 H        1 UNK          0.0000
   47 O        91.7837   84.6101   76.8810 O.3      1 UNK          0.0000
   48 P        93.3585   84.9150   76.5768 P.3      1 UNK          0.0000
   49 O        94.2445   83.5835   76.7518 O.3      1 UNK          0.0000
   50 H        93.9196   82.9101   76.1234 H        1 UNK          0.0000
   51 O        93.9028   86.0447   77.5818 O.3      1 UNK          0.0000
   52 H        93.4428   86.8797   77.4029 H        1 UNK          0.0000
   53 O        93.5026   85.4343   75.0604 O.3      1 UNK          0.0000
   54 H        94.4442   85.5341   74.8354 H        1 UNK          0.0000
   55 C        91.3519   82.2886   77.5754 C.3      1 UNK          0.0000
   56 H        92.2231   82.5754   78.1758 H        1 UNK          0.0000
   57 O        90.2362   82.0084   78.4019 O.3      1 UNK          0.0000
   58 H        89.9972   82.8478   78.8268 H        1 UNK          0.0000
   59 N        90.1322   82.2885   74.3877 N.ar     1 UNK          0.0000
   60 C        89.8502   81.0459   73.7759 C.ar     1 UNK          0.0000
   61 H        90.5324   80.2128   73.8698 H        1 UNK          0.0000
   62 N        88.6981   81.0219   73.0769 N.ar     1 UNK          0.0000
   63 C        88.2751   82.3080   73.1595 C.ar     1 UNK          0.0000
   64 C        89.0505   83.0580   74.0560 C.ar     1 UNK          0.0000
   65 N        88.7413   84.3581   74.3970 N.ar     1 UNK          0.0000
   66 C        87.6758   84.9191   73.7286 C.ar     1 UNK          0.0000
   67 H        87.5019   85.9504   73.9479 H        1 UNK          0.0000
   68 N        86.8546   84.2894   72.8018 N.ar     1 UNK          0.0000
   69 C        87.1662   82.9711   72.4878 C.ar     1 UNK          0.0000
   70 N        86.3782   82.3387   71.5454 N.pl3    1 UNK          0.0000
   71 H        86.5494   81.3697   71.2950 H        1 UNK          0.0000
   72 H        85.6230   82.8485   71.1093 H        1 UNK          0.0000
   73 C        97.4215   75.1991   76.5960 C.3      1 UNK          0.0000
   74 H        96.8059   74.7248   77.3724 H        1 UNK          0.0000
   75 O        98.7460   75.4254   77.0471 O.3      1 UNK          0.0000
   76 H        98.7112   75.9968   77.8332 H        1 UNK          0.0000
   77 C        97.4311   74.3171   75.3400 C.3      1 UNK          0.0000
   78 H        98.3489   74.5042   74.7647 H        1 UNK          0.0000
   79 O        97.2285   72.9460   75.6166 O.3      1 UNK          0.0000
   80 H        97.9845   72.6749   76.1612 H        1 UNK          0.0000
@<TRIPOS>BOND
     1     1     2   1 
     2     1     3   1 
     3     1     4   am
     4     4     5   2 
     5     4     6   1 
     6     6     7   ar
     7     6    14   ar
     8     7     8   1 
     9     7     9   ar
    10     9    10   1 
    11     9    11   ar
    12    11    12   1 
    13    11    13   ar
    14    13    14   ar
    15    13    16   1 
    16    14    15   1 
    17    16    17   1 
    18    16    18   1 
    19    16    77   1 
    20    18    19   1 
    21    19    20   1 
    22    19    21   1 
    23    19    73   1 
    24    21    22   1 
    25    21    23   1 
    26    21    24   1 
    27    24    25   1 
    28    25    26   1 
    29    25    28   1 
    30    25    30   1 
    31    26    27   1 
    32    28    29   1 
    33    30    31   1 
    34    31    32   1 
    35    31    34   1 
    36    31    36   1 
    37    32    33   1 
    38    34    35   1 
    39    36    37   1 
    40    37    38   1 
    41    37    39   1 
    42    37    40   1 
    43    40    41   1 
    44    40    42   1 
    45    40    55   1 
    46    42    43   1 
    47    43    44   1 
    48    43    45   1 
    49    43    59   1 
    50    45    46   1 
    51    45    47   1 
    52    45    55   1 
    53    47    48   1 
    54    48    49   1 
    55    48    51   1 
    56    48    53   1 
    57    49    50   1 
    58    51    52   1 
    59    53    54   1 
    60    55    56   1 
    61    55    57   1 
    62    57    58   1 
    63    59    60   1 
    64    59    64   1 
    65    60    61   1 
    66    60    62   2 
    67    62    63   1 
    68    63    64   ar
    69    63    69   ar
    70    64    65   ar
    71    65    66   ar
    72    66    67   1 
    73    66    68   ar
    74    68    69   ar
    75    69    70   1 
    76    70    71   1 
    77    70    72   1 
    78    73    74   1 
    79    73    75   1 
    80    73    77   1 
    81    75    76   1 
    82    77    78   1 
    83    77    79   1 
    84    79    80   1 
#MOLECULE END
 
#  inp11.mol2              4    of   10
#                 SCORE =  -288.3794
#              dG-SCORE =    -5.1817
#     LIGAND_EFFICIENCY =    -0.6008
# NUMBER_OF_HEAVY_ATOMS =         48
#                   ASA =  -246.3456
#                   ELE =     0.0000
#                   HYD =   -26.4260
#                   VDW =   -15.6078
#                  RMSD =    30.6569
@<TRIPOS>MOLECULE
inp11.mol2                                                                      
   80   84    0    0    0
SMALL       
GASTEIGER      
 
@<TRIPOS>ATOM
    1 N        93.7123   75.7511   72.9014 N.am     1 UNK          0.0000
    2 H        93.6981   76.7598   72.9414 H        1 UNK          0.0000
    3 H        93.5168   75.2824   72.0405 H        1 UNK          0.0000
    4 C        93.9591   75.0069   74.0422 C.2      1 UNK          0.0000
    5 O        93.9969   73.7869   73.9020 O.2      1 UNK          0.0000
    6 C        94.1396   75.6105   75.3728 C.ar     1 UNK          0.0000
    7 C        93.9296   74.7803   76.5143 C.ar     1 UNK          0.0000
    8 H        93.6990   73.7119   76.3680 H        1 UNK          0.0000
    9 C        93.9676   75.2902   77.7840 C.ar     1 UNK          0.0000
   10 H        93.7581   74.6310   78.6224 H        1 UNK          0.0000
   11 C        94.3205   76.6958   78.0030 C.ar     1 UNK          0.0000
   12 H        94.3650   77.0920   78.9957 H        1 UNK          0.0000
   13 N        94.6709   77.5438   76.9137 N.ar     1 UNK          0.0000
   14 C        94.5039   77.0255   75.6052 C.ar     1 UNK          0.0000
   15 H        94.6575   77.6730   74.7422 H        1 UNK          0.0000
   16 C        95.1562   78.9717   77.2480 C.3      1 UNK          0.0000
   17 H        94.4738   79.3579   78.0098 H        1 UNK          0.0000
   18 O        95.0943   79.7962   76.0648 O.3      1 UNK          0.0000
   19 C        95.6438   81.1117   76.3567 C.3      1 UNK          0.0000
   20 H        96.1557   81.4865   75.4577 H        1 UNK          0.0000
   21 C        94.5563   82.1748   76.7636 C.3      1 UNK          0.0000
   22 H        95.0824   83.0782   77.0985 H        1 UNK          0.0000
   23 H        93.9707   82.4575   75.8793 H        1 UNK          0.0000
   24 O        93.6712   81.7394   77.8275 O.3      1 UNK          0.0000
   25 P        92.2436   80.9982   77.6072 P.3      1 UNK          0.0000
   26 O        92.1392   79.9416   78.8129 O.3      1 UNK          0.0000
   27 H        91.5155   79.2577   78.5272 H        1 UNK          0.0000
   28 O        92.2048   80.1376   76.2415 O.3      1 UNK          0.0000
   29 H        92.2971   80.7358   75.4754 H        1 UNK          0.0000
   30 O        91.0215   82.0644   77.6520 O.3      1 UNK          0.0000
   31 P        90.4161   82.9663   76.4520 P.3      1 UNK          0.0000
   32 O        89.1928   82.2452   75.6948 O.3      1 UNK          0.0000
   33 H        88.4261   82.2036   76.2898 H        1 UNK          0.0000
   34 O        89.8748   84.3495   77.0706 O.3      1 UNK          0.0000
   35 H        89.0128   84.2075   77.4896 H        1 UNK          0.0000
   36 O        91.6058   83.2888   75.3930 O.3      1 UNK          0.0000
   37 C        91.6343   84.4729   74.5567 C.3      1 UNK          0.0000
   38 H        91.6630   85.3615   75.1988 H        1 UNK          0.0000
   39 H        92.5510   84.4761   73.9505 H        1 UNK          0.0000
   40 C        90.4053   84.5656   73.6091 C.3      1 UNK          0.0000
   41 H        89.4653   84.3602   74.1357 H        1 UNK          0.0000
   42 O        90.5798   83.6361   72.5201 O.3      1 UNK          0.0000
   43 C        89.6488   83.9976   71.4726 C.3      1 UNK          0.0000
   44 H        90.0606   83.6789   70.5079 H        1 UNK          0.0000
   45 C        89.5997   85.5617   71.5487 C.3      1 UNK          0.0000
   46 H        88.5565   85.9031   71.5706 H        1 UNK          0.0000
   47 O        90.3091   86.1951   70.4360 O.3      1 UNK          0.0000
   48 P        91.6799   85.6837   69.7077 P.3      1 UNK          0.0000
   49 O        92.7387   85.1052   70.7717 O.3      1 UNK          0.0000
   50 H        92.3391   84.3400   71.2243 H        1 UNK          0.0000
   51 O        92.3435   86.9151   68.9254 O.3      1 UNK          0.0000
   52 H        91.7124   87.2545   68.2697 H        1 UNK          0.0000
   53 O        91.3206   84.5230   68.6550 O.3      1 UNK          0.0000
   54 H        92.1379   84.2127   68.2286 H        1 UNK          0.0000
   55 C        90.2940   85.9185   72.8844 C.3      1 UNK          0.0000
   56 H        91.3058   86.2855   72.6715 H        1 UNK          0.0000
   57 O        89.5782   86.8986   73.6462 O.3      1 UNK          0.0000
   58 H        89.5155   87.7053   73.1033 H        1 UNK          0.0000
   59 N        88.3623   83.2678   71.5602 N.ar     1 UNK          0.0000
   60 C        88.0608   82.0840   72.2602 C.ar     1 UNK          0.0000
   61 H        88.7189   81.6929   73.0287 H        1 UNK          0.0000
   62 N        86.9397   81.4936   71.8098 N.ar     1 UNK          0.0000
   63 C        86.3497   82.4920   71.0996 C.ar     1 UNK          0.0000
   64 C        87.1846   83.6032   70.9441 C.ar     1 UNK          0.0000
   65 N        86.8030   84.7287   70.2210 N.ar     1 UNK          0.0000
   66 C        85.5307   84.7024   69.6631 C.ar     1 UNK          0.0000
   67 H        85.2499   85.5292   69.0134 H        1 UNK          0.0000
   68 N        84.6043   83.6858   69.8284 N.ar     1 UNK          0.0000
   69 C        85.0440   82.5438   70.4690 C.ar     1 UNK          0.0000
   70 N        84.1831   81.4818   70.4755 N.pl3    1 UNK          0.0000
   71 H        84.4451   80.6359   70.9450 H        1 UNK          0.0000
   72 H        83.2734   81.5775   70.0569 H        1 UNK          0.0000
   73 C        96.6914   80.8242   77.4721 C.3      1 UNK          0.0000
   74 H        96.3694   81.3175   78.3997 H        1 UNK          0.0000
   75 O        98.0240   81.2334   77.1481 O.3      1 UNK          0.0000
   76 H        98.0349   82.2002   77.0209 H        1 UNK          0.0000
   77 C        96.6105   79.2956   77.6759 C.3      1 UNK          0.0000
   78 H        97.3200   78.8057   76.9938 H        1 UNK          0.0000
   79 O        96.9673   79.0655   79.0378 O.3      1 UNK          0.0000
   80 H        97.8547   79.4490   79.1735 H        1 UNK          0.0000
@<TRIPOS>BOND
     1     1     2   1 
     2     1     3   1 
     3     1     4   am
     4     4     5   2 
     5     4     6   1 
     6     6     7   ar
     7     6    14   ar
     8     7     8   1 
     9     7     9   ar
    10     9    10   1 
    11     9    11   ar
    12    11    12   1 
    13    11    13   ar
    14    13    14   ar
    15    13    16   1 
    16    14    15   1 
    17    16    17   1 
    18    16    18   1 
    19    16    77   1 
    20    18    19   1 
    21    19    20   1 
    22    19    21   1 
    23    19    73   1 
    24    21    22   1 
    25    21    23   1 
    26    21    24   1 
    27    24    25   1 
    28    25    26   1 
    29    25    28   1 
    30    25    30   1 
    31    26    27   1 
    32    28    29   1 
    33    30    31   1 
    34    31    32   1 
    35    31    34   1 
    36    31    36   1 
    37    32    33   1 
    38    34    35   1 
    39    36    37   1 
    40    37    38   1 
    41    37    39   1 
    42    37    40   1 
    43    40    41   1 
    44    40    42   1 
    45    40    55   1 
    46    42    43   1 
    47    43    44   1 
    48    43    45   1 
    49    43    59   1 
    50    45    46   1 
    51    45    47   1 
    52    45    55   1 
    53    47    48   1 
    54    48    49   1 
    55    48    51   1 
    56    48    53   1 
    57    49    50   1 
    58    51    52   1 
    59    53    54   1 
    60    55    56   1 
    61    55    57   1 
    62    57    58   1 
    63    59    60   1 
    64    59    64   1 
    65    60    61   1 
    66    60    62   2 
    67    62    63   1 
    68    63    64   ar
    69    63    69   ar
    70    64    65   ar
    71    65    66   ar
    72    66    67   1 
    73    66    68   ar
    74    68    69   ar
    75    69    70   1 
    76    70    71   1 
    77    70    72   1 
    78    73    74   1 
    79    73    75   1 
    80    73    77   1 
    81    75    76   1 
    82    77    78   1 
    83    77    79   1 
    84    79    80   1 
#MOLECULE END
 
#  inp11.mol2              5    of   10
#                 SCORE =  -366.7620
#              dG-SCORE =    -7.4115
#     LIGAND_EFFICIENCY =    -0.7641
# NUMBER_OF_HEAVY_ATOMS =         48
#                   ASA =  -310.9424
#                   ELE =     0.0000
#                   HYD =   -39.9278
#                   VDW =   -15.8917
#                  RMSD =    29.4939
@<TRIPOS>MOLECULE
inp11.mol2                                                                      
   80   84    0    0    0
SMALL       
GASTEIGER      
 
@<TRIPOS>ATOM
    1 N        86.4307   81.3827   71.5752 N.am     1 UNK          0.0000
    2 H        87.0730   81.1005   72.2966 H        1 UNK          0.0000
    3 H        85.9579   80.6745   71.0366 H        1 UNK          0.0000
    4 C        86.1555   82.6938   71.2617 C.2      1 UNK          0.0000
    5 O        85.3881   82.8565   70.3437 O.2      1 UNK          0.0000
    6 C        86.8201   83.8805   71.9938 C.ar     1 UNK          0.0000
    7 C        86.7402   85.1675   71.3729 C.ar     1 UNK          0.0000
    8 H        86.1826   85.3263   70.4744 H        1 UNK          0.0000
    9 C        87.4918   86.2622   71.9492 C.ar     1 UNK          0.0000
   10 H        87.4993   87.2149   71.4295 H        1 UNK          0.0000
   11 C        88.1999   86.0802   73.1449 C.ar     1 UNK          0.0000
   12 H        88.7622   86.9179   73.6040 H        1 UNK          0.0000
   13 N        88.2534   84.8170   73.8276 N.ar     1 UNK          0.0000
   14 C        87.5477   83.7153   73.1848 C.ar     1 UNK          0.0000
   15 H        87.6573   82.7583   73.6865 H        1 UNK          0.0000
   16 C        89.0136   84.6453   75.0659 C.3      1 UNK          0.0000
   17 H        90.0716   84.8814   74.8685 H        1 UNK          0.0000
   18 O        88.8987   83.3214   75.6670 O.3      1 UNK          0.0000
   19 C        89.5491   83.3387   76.9621 C.3      1 UNK          0.0000
   20 H        89.0329   82.6503   77.6446 H        1 UNK          0.0000
   21 C        91.0695   82.9330   76.9150 C.3      1 UNK          0.0000
   22 H        91.5066   83.0647   77.9089 H        1 UNK          0.0000
   23 H        91.1723   81.8720   76.6700 H        1 UNK          0.0000
   24 O        91.8320   83.7292   75.9753 O.3      1 UNK          0.0000
   25 P        92.2400   83.2445   74.4771 P.3      1 UNK          0.0000
   26 O        92.2491   84.5369   73.5198 O.3      1 UNK          0.0000
   27 H        92.5295   84.2616   72.6283 H        1 UNK          0.0000
   28 O        91.1758   82.1950   73.8750 O.3      1 UNK          0.0000
   29 H        91.2186   81.3762   74.4050 H        1 UNK          0.0000
   30 O        93.7215   82.6113   74.4817 O.3      1 UNK          0.0000
   31 P        94.1346   81.0678   74.6729 P.3      1 UNK          0.0000
   32 O        94.0731   80.3163   73.2521 O.3      1 UNK          0.0000
   33 H        94.6787   80.7529   72.6261 H        1 UNK          0.0000
   34 O        95.6408   81.0338   75.2430 O.3      1 UNK          0.0000
   35 H        96.2471   81.4519   74.6090 H        1 UNK          0.0000
   36 O        93.1223   80.3768   75.7439 O.3      1 UNK          0.0000
   37 C        93.5095   79.2868   76.6133 C.3      1 UNK          0.0000
   38 H        94.3371   79.6142   77.2531 H        1 UNK          0.0000
   39 H        92.6712   79.0095   77.2656 H        1 UNK          0.0000
   40 C        93.9585   78.0419   75.8092 C.3      1 UNK          0.0000
   41 H        94.6314   78.2904   74.9784 H        1 UNK          0.0000
   42 O        92.7979   77.3440   75.3421 O.3      1 UNK          0.0000
   43 C        93.2360   76.0369   74.8947 C.3      1 UNK          0.0000
   44 H        92.4155   75.3208   74.9550 H        1 UNK          0.0000
   45 C        94.3489   75.6570   75.9194 C.3      1 UNK          0.0000
   46 H        95.2474   75.3289   75.3881 H        1 UNK          0.0000
   47 O        93.9751   74.6679   76.9154 O.3      1 UNK          0.0000
   48 P        92.5636   74.6162   77.6927 P.3      1 UNK          0.0000
   49 O        91.9199   76.0823   77.9440 O.3      1 UNK          0.0000
   50 H        91.8373   76.5555   77.0924 H        1 UNK          0.0000
   51 O        92.7468   73.8475   79.0605 O.3      1 UNK          0.0000
   52 H        92.6614   72.9129   78.8258 H        1 UNK          0.0000
   53 O        91.7256   73.5939   76.8152 O.3      1 UNK          0.0000
   54 H        90.7848   73.6516   77.0396 H        1 UNK          0.0000
   55 C        94.5961   76.9664   76.6829 C.3      1 UNK          0.0000
   56 H        94.0131   76.9291   77.6082 H        1 UNK          0.0000
   57 O        95.9821   77.1641   76.9533 O.3      1 UNK          0.0000
   58 H        96.3226   76.3166   77.2923 H        1 UNK          0.0000
   59 N        93.6217   76.0460   73.4620 N.ar     1 UNK          0.0000
   60 C        93.4473   77.0578   72.4931 C.ar     1 UNK          0.0000
   61 H        92.9787   78.0023   72.7379 H        1 UNK          0.0000
   62 N        93.9177   76.7295   71.2820 N.ar     1 UNK          0.0000
   63 C        94.3816   75.4704   71.4705 C.ar     1 UNK          0.0000
   64 C        94.2130   75.0198   72.7837 C.ar     1 UNK          0.0000
   65 N        94.6111   73.7571   73.2004 N.ar     1 UNK          0.0000
   66 C        95.1228   72.9216   72.2181 C.ar     1 UNK          0.0000
   67 H        95.3537   71.8996   72.5025 H        1 UNK          0.0000
   68 N        95.3513   73.2831   70.8958 N.ar     1 UNK          0.0000
   69 C        95.0110   74.5788   70.5210 C.ar     1 UNK          0.0000
   70 N        95.3082   74.9958   69.2425 N.pl3    1 UNK          0.0000
   71 H        95.0828   75.9399   68.9617 H        1 UNK          0.0000
   72 H        95.7604   74.3643   68.5992 H        1 UNK          0.0000
   73 C        89.3235   84.8184   77.4029 C.3      1 UNK          0.0000
   74 H        90.2886   85.3248   77.5487 H        1 UNK          0.0000
   75 O        88.4981   84.9700   78.5267 O.3      1 UNK          0.0000
   76 H        89.0075   84.7497   79.3148 H        1 UNK          0.0000
   77 C        88.5460   85.4736   76.2649 C.3      1 UNK          0.0000
   78 H        87.4849   85.2415   76.3715 H        1 UNK          0.0000
   79 O        88.7586   86.8875   76.2095 O.3      1 UNK          0.0000
   80 H        88.5224   87.2514   77.0860 H        1 UNK          0.0000
@<TRIPOS>BOND
     1     1     2   1 
     2     1     3   1 
     3     1     4   am
     4     4     5   2 
     5     4     6   1 
     6     6     7   ar
     7     6    14   ar
     8     7     8   1 
     9     7     9   ar
    10     9    10   1 
    11     9    11   ar
    12    11    12   1 
    13    11    13   ar
    14    13    14   ar
    15    13    16   1 
    16    14    15   1 
    17    16    17   1 
    18    16    18   1 
    19    16    77   1 
    20    18    19   1 
    21    19    20   1 
    22    19    21   1 
    23    19    73   1 
    24    21    22   1 
    25    21    23   1 
    26    21    24   1 
    27    24    25   1 
    28    25    26   1 
    29    25    28   1 
    30    25    30   1 
    31    26    27   1 
    32    28    29   1 
    33    30    31   1 
    34    31    32   1 
    35    31    34   1 
    36    31    36   1 
    37    32    33   1 
    38    34    35   1 
    39    36    37   1 
    40    37    38   1 
    41    37    39   1 
    42    37    40   1 
    43    40    41   1 
    44    40    42   1 
    45    40    55   1 
    46    42    43   1 
    47    43    44   1 
    48    43    45   1 
    49    43    59   1 
    50    45    46   1 
    51    45    47   1 
    52    45    55   1 
    53    47    48   1 
    54    48    49   1 
    55    48    51   1 
    56    48    53   1 
    57    49    50   1 
    58    51    52   1 
    59    53    54   1 
    60    55    56   1 
    61    55    57   1 
    62    57    58   1 
    63    59    60   1 
    64    59    64   1 
    65    60    61   1 
    66    60    62   2 
    67    62    63   1 
    68    63    64   ar
    69    63    69   ar
    70    64    65   ar
    71    65    66   ar
    72    66    67   1 
    73    66    68   ar
    74    68    69   ar
    75    69    70   1 
    76    70    71   1 
    77    70    72   1 
    78    73    74   1 
    79    73    75   1 
    80    73    77   1 
    81    75    76   1 
    82    77    78   1 
    83    77    79   1 
    84    79    80   1 
#MOLECULE END
 
#  inp11.mol2              6    of   10
#                 SCORE =  -319.6406
#              dG-SCORE =    -6.1730
#     LIGAND_EFFICIENCY =    -0.6659
# NUMBER_OF_HEAVY_ATOMS =         48
#                   ASA =  -265.1592
#                   ELE =     0.0000
#                   HYD =   -38.7210
#                   VDW =   -15.7604
#                  RMSD =    27.6761
@<TRIPOS>MOLECULE
inp11.mol2                                                                      
   80   84    0    0    0
SMALL       
GASTEIGER      
 
@<TRIPOS>ATOM
    1 N        87.6024   81.4602   71.7291 N.am     1 UNK          0.0000
    2 H        87.8392   81.4222   72.7023 H        1 UNK          0.0000
    3 H        87.4107   80.5936   71.2319 H        1 UNK          0.0000
    4 C        87.5357   82.6396   71.0153 C.2      1 UNK          0.0000
    5 O        87.2976   82.5197   69.8403 O.2      1 UNK          0.0000
    6 C        87.7828   84.0262   71.6699 C.ar     1 UNK          0.0000
    7 C        87.8277   85.2052   70.8465 C.ar     1 UNK          0.0000
    8 H        87.6937   85.1667   69.7847 H        1 UNK          0.0000
    9 C        88.1037   86.4891   71.4700 C.ar     1 UNK          0.0000
   10 H        88.1504   87.3770   70.8424 H        1 UNK          0.0000
   11 C        88.3356   86.5636   72.8494 C.ar     1 UNK          0.0000
   12 H        88.5710   87.5335   73.3336 H        1 UNK          0.0000
   13 N        88.3070   85.4083   73.6980 N.ar     1 UNK          0.0000
   14 C        87.9996   84.1277   73.0529 C.ar     1 UNK          0.0000
   15 H        87.9806   83.2571   73.7096 H        1 UNK          0.0000
   16 C        88.6252   85.5106   75.1182 C.3      1 UNK          0.0000
   17 H        89.6505   85.8956   75.2305 H        1 UNK          0.0000
   18 O        88.4821   84.2482   75.8108 O.3      1 UNK          0.0000
   19 C        88.6110   84.4985   77.2206 C.3      1 UNK          0.0000
   20 H        88.0303   83.7607   77.7742 H        1 UNK          0.0000
   21 C        90.0513   84.4193   77.7456 C.3      1 UNK          0.0000
   22 H        89.9849   84.7133   78.7912 H        1 UNK          0.0000
   23 H        90.4175   83.3859   77.6839 H        1 UNK          0.0000
   24 O        90.9433   85.3481   77.1083 O.3      1 UNK          0.0000
   25 P        92.0039   84.8742   75.9944 P.3      1 UNK          0.0000
   26 O        92.1762   86.0670   74.9361 O.3      1 UNK          0.0000
   27 H        92.7952   85.7680   74.2470 H        1 UNK          0.0000
   28 O        91.4762   83.5693   75.2015 O.3      1 UNK          0.0000
   29 H        91.3759   82.8313   75.8352 H        1 UNK          0.0000
   30 O        93.4101   84.5948   76.7208 O.3      1 UNK          0.0000
   31 P        93.8892   83.1924   77.3339 P.3      1 UNK          0.0000
   32 O        94.4988   82.2865   76.1469 O.3      1 UNK          0.0000
   33 H        95.2313   82.7567   75.7085 H        1 UNK          0.0000
   34 O        95.0052   83.4755   78.4610 O.3      1 UNK          0.0000
   35 H        95.7853   83.8813   78.0480 H        1 UNK          0.0000
   36 O        92.5963   82.4662   78.0017 O.3      1 UNK          0.0000
   37 C        92.7392   81.4264   78.9775 C.3      1 UNK          0.0000
   38 H        93.2307   81.8377   79.8678 H        1 UNK          0.0000
   39 H        91.7705   81.0202   79.2810 H        1 UNK          0.0000
   40 C        93.6009   80.2807   78.4220 C.3      1 UNK          0.0000
   41 H        94.5282   80.6231   77.9510 H        1 UNK          0.0000
   42 O        92.8586   79.4134   77.5297 O.3      1 UNK          0.0000
   43 C        93.5626   78.1512   77.4524 C.3      1 UNK          0.0000
   44 H        92.8821   77.3127   77.2547 H        1 UNK          0.0000
   45 C        94.1359   78.0742   78.8728 C.3      1 UNK          0.0000
   46 H        95.2094   77.8600   78.7867 H        1 UNK          0.0000
   47 O        93.4299   77.1091   79.6890 O.3      1 UNK          0.0000
   48 P        91.8772   76.6874   79.4926 P.3      1 UNK          0.0000
   49 O        91.0280   77.9811   79.2008 O.3      1 UNK          0.0000
   50 H        91.5301   78.4819   78.5399 H        1 UNK          0.0000
   51 O        91.3346   75.9865   80.7969 O.3      1 UNK          0.0000
   52 H        91.8999   75.2209   81.0061 H        1 UNK          0.0000
   53 O        91.8674   75.6998   78.2516 O.3      1 UNK          0.0000
   54 H        90.9782   75.3248   78.2075 H        1 UNK          0.0000
   55 C        93.9702   79.4086   79.5790 C.3      1 UNK          0.0000
   56 H        93.1063   79.3451   80.2301 H        1 UNK          0.0000
   57 O        95.1077   79.9204   80.2777 O.3      1 UNK          0.0000
   58 H        95.2503   79.3682   81.0581 H        1 UNK          0.0000
   59 N        94.6302   78.0720   76.4432 N.ar     1 UNK          0.0000
   60 C        94.8740   78.9917   75.4212 C.ar     1 UNK          0.0000
   61 H        94.2400   79.8595   75.3050 H        1 UNK          0.0000
   62 N        95.9307   78.6844   74.6591 N.ar     1 UNK          0.0000
   63 C        96.3790   77.5243   75.2042 C.ar     1 UNK          0.0000
   64 C        95.6091   77.1128   76.2961 C.ar     1 UNK          0.0000
   65 N        95.8955   75.9482   76.9912 N.ar     1 UNK          0.0000
   66 C        97.0147   75.2410   76.5902 C.ar     1 UNK          0.0000
   67 H        97.2649   74.3773   77.1852 H        1 UNK          0.0000
   68 N        97.8236   75.5471   75.5019 N.ar     1 UNK          0.0000
   69 C        97.4993   76.7019   74.7919 C.ar     1 UNK          0.0000
   70 N        98.2462   77.0433   73.6849 N.pl3    1 UNK          0.0000
   71 H        98.0147   77.8864   73.1753 H        1 UNK          0.0000
   72 H        99.0084   76.4574   73.3827 H        1 UNK          0.0000
   73 C        88.1513   85.9793   77.3949 C.3      1 UNK          0.0000
   74 H        89.0076   86.5927   77.6852 H        1 UNK          0.0000
   75 O        87.0771   86.2452   78.2942 O.3      1 UNK          0.0000
   76 H        87.3606   86.0858   79.2096 H        1 UNK          0.0000
   77 C        87.7066   86.3624   75.9987 C.3      1 UNK          0.0000
   78 H        86.6872   86.0014   75.8175 H        1 UNK          0.0000
   79 O        87.8354   87.7703   75.8801 O.3      1 UNK          0.0000
   80 H        87.1871   88.1405   76.5104 H        1 UNK          0.0000
@<TRIPOS>BOND
     1     1     2   1 
     2     1     3   1 
     3     1     4   am
     4     4     5   2 
     5     4     6   1 
     6     6     7   ar
     7     6    14   ar
     8     7     8   1 
     9     7     9   ar
    10     9    10   1 
    11     9    11   ar
    12    11    12   1 
    13    11    13   ar
    14    13    14   ar
    15    13    16   1 
    16    14    15   1 
    17    16    17   1 
    18    16    18   1 
    19    16    77   1 
    20    18    19   1 
    21    19    20   1 
    22    19    21   1 
    23    19    73   1 
    24    21    22   1 
    25    21    23   1 
    26    21    24   1 
    27    24    25   1 
    28    25    26   1 
    29    25    28   1 
    30    25    30   1 
    31    26    27   1 
    32    28    29   1 
    33    30    31   1 
    34    31    32   1 
    35    31    34   1 
    36    31    36   1 
    37    32    33   1 
    38    34    35   1 
    39    36    37   1 
    40    37    38   1 
    41    37    39   1 
    42    37    40   1 
    43    40    41   1 
    44    40    42   1 
    45    40    55   1 
    46    42    43   1 
    47    43    44   1 
    48    43    45   1 
    49    43    59   1 
    50    45    46   1 
    51    45    47   1 
    52    45    55   1 
    53    47    48   1 
    54    48    49   1 
    55    48    51   1 
    56    48    53   1 
    57    49    50   1 
    58    51    52   1 
    59    53    54   1 
    60    55    56   1 
    61    55    57   1 
    62    57    58   1 
    63    59    60   1 
    64    59    64   1 
    65    60    61   1 
    66    60    62   2 
    67    62    63   1 
    68    63    64   ar
    69    63    69   ar
    70    64    65   ar
    71    65    66   ar
    72    66    67   1 
    73    66    68   ar
    74    68    69   ar
    75    69    70   1 
    76    70    71   1 
    77    70    72   1 
    78    73    74   1 
    79    73    75   1 
    80    73    77   1 
    81    75    76   1 
    82    77    78   1 
    83    77    79   1 
    84    79    80   1 
#MOLECULE END
 
#  inp11.mol2              7    of   10
#                 SCORE =  -318.6378
#              dG-SCORE =    -6.1501
#     LIGAND_EFFICIENCY =    -0.6638
# NUMBER_OF_HEAVY_ATOMS =         48
#                   ASA =  -264.6663
#                   ELE =     0.0000
#                   HYD =   -38.4739
#                   VDW =   -15.4975
#                  RMSD =    30.6931
@<TRIPOS>MOLECULE
inp11.mol2                                                                      
   80   84    0    0    0
SMALL       
GASTEIGER      
 
@<TRIPOS>ATOM
    1 N        91.2493   85.4899   76.0737 N.am     1 UNK          0.0000
    2 H        91.2784   84.9208   75.2347 H        1 UNK          0.0000
    3 H        92.0973   85.7159   76.5570 H        1 UNK          0.0000
    4 C        90.0396   85.9597   76.5535 C.2      1 UNK          0.0000
    5 O        90.1078   86.6498   77.5661 O.2      1 UNK          0.0000
    6 C        88.7496   85.6505   75.8980 C.ar     1 UNK          0.0000
    7 C        87.5300   86.1619   76.4314 C.ar     1 UNK          0.0000
    8 H        87.5786   86.8541   77.2878 H        1 UNK          0.0000
    9 C        86.2958   85.7721   75.9120 C.ar     1 UNK          0.0000
   10 H        85.3764   86.1101   76.3870 H        1 UNK          0.0000
   11 C        86.2086   84.9564   74.7183 C.ar     1 UNK          0.0000
   12 H        85.2925   84.7089   74.2334 H        1 UNK          0.0000
   13 N        87.3980   84.5254   74.1020 N.ar     1 UNK          0.0000
   14 C        88.6419   84.8209   74.6882 C.ar     1 UNK          0.0000
   15 H        89.5541   84.4474   74.2234 H        1 UNK          0.0000
   16 C        87.2283   83.7968   72.7918 C.3      1 UNK          0.0000
   17 H        86.6204   82.9191   72.9602 H        1 UNK          0.0000
   18 O        88.5073   83.4147   72.2639 O.3      1 UNK          0.0000
   19 C        88.3099   82.9150   70.9227 C.3      1 UNK          0.0000
   20 H        89.1735   83.2035   70.3086 H        1 UNK          0.0000
   21 C        88.1828   81.3610   70.8544 C.3      1 UNK          0.0000
   22 H        87.9124   81.1133   69.8257 H        1 UNK          0.0000
   23 H        89.1440   80.8811   71.0781 H        1 UNK          0.0000
   24 O        87.1693   80.8553   71.7328 O.3      1 UNK          0.0000
   25 P        87.5087   80.2568   73.1899 P.3      1 UNK          0.0000
   26 O        86.3106   80.5812   74.1801 O.3      1 UNK          0.0000
   27 H        86.5158   80.1653   75.0358 H        1 UNK          0.0000
   28 O        88.8173   80.8662   73.9027 O.3      1 UNK          0.0000
   29 H        89.6091   80.5574   73.4264 H        1 UNK          0.0000
   30 O        87.4874   78.6801   73.1332 O.3      1 UNK          0.0000
   31 P        88.7869   77.8121   73.0803 P.3      1 UNK          0.0000
   32 O        89.1636   77.8768   74.6250 O.3      1 UNK          0.0000
   33 H        88.6653   77.1988   75.0844 H        1 UNK          0.0000
   34 O        88.3986   76.3473   72.5266 O.3      1 UNK          0.0000
   35 H        87.7720   75.9124   73.1265 H        1 UNK          0.0000
   36 O        89.8655   78.5761   72.1379 O.3      1 UNK          0.0000
   37 C        90.8339   77.9275   71.2891 C.3      1 UNK          0.0000
   38 H        90.2933   77.2548   70.6161 H        1 UNK          0.0000
   39 H        91.3327   78.6752   70.6639 H        1 UNK          0.0000
   40 C        91.9072   77.1490   72.1032 C.3      1 UNK          0.0000
   41 H        91.4263   76.4987   72.8345 H        1 UNK          0.0000
   42 O        92.8321   78.0228   72.7823 O.3      1 UNK          0.0000
   43 C        93.9340   77.2061   73.2710 C.3      1 UNK          0.0000
   44 H        94.8421   77.8107   73.3435 H        1 UNK          0.0000
   45 C        94.0853   76.1196   72.1497 C.3      1 UNK          0.0000
   46 H        94.0827   75.1139   72.5879 H        1 UNK          0.0000
   47 O        95.2321   76.2801   71.2703 O.3      1 UNK          0.0000
   48 P        95.7289   77.6762   70.5989 P.3      1 UNK          0.0000
   49 O        94.4971   78.6636   70.2815 O.3      1 UNK          0.0000
   50 H        93.9878   78.8024   71.1017 H        1 UNK          0.0000
   51 O        96.4959   77.3588   69.2283 O.3      1 UNK          0.0000
   52 H        97.2301   76.7495   69.4048 H        1 UNK          0.0000
   53 O        96.7224   78.3798   71.6430 O.3      1 UNK          0.0000
   54 H        97.0350   79.2176   71.2681 H        1 UNK          0.0000
   55 C        92.8548   76.2940   71.2592 C.3      1 UNK          0.0000
   56 H        93.1166   76.8402   70.3483 H        1 UNK          0.0000
   57 O        92.3567   75.0044   70.9082 O.3      1 UNK          0.0000
   58 H        93.0770   74.5021   70.4823 H        1 UNK          0.0000
   59 N        93.7032   76.6923   74.6523 N.ar     1 UNK          0.0000
   60 C        92.7994   77.1431   75.6390 C.ar     1 UNK          0.0000
   61 H        92.1627   78.0044   75.4635 H        1 UNK          0.0000
   62 N        92.7789   76.3908   76.7531 N.ar     1 UNK          0.0000
   63 C        93.7601   75.4865   76.5130 C.ar     1 UNK          0.0000
   64 C        94.3920   75.6827   75.2780 C.ar     1 UNK          0.0000
   65 N        95.4802   74.9246   74.8728 N.ar     1 UNK          0.0000
   66 C        95.9577   74.0011   75.7874 C.ar     1 UNK          0.0000
   67 H        96.8718   73.4929   75.5165 H        1 UNK          0.0000
   68 N        95.3759   73.6905   77.0103 N.ar     1 UNK          0.0000
   69 C        94.2355   74.4066   77.3530 C.ar     1 UNK          0.0000
   70 N        93.5850   74.0662   78.5073 N.pl3    1 UNK          0.0000
   71 H        92.7299   74.5382   78.7531 H        1 UNK          0.0000
   72 H        93.9876   73.3703   79.1149 H        1 UNK          0.0000
   73 C        87.0229   83.6518   70.4416 C.3      1 UNK          0.0000
   74 H        86.2290   82.9088   70.2839 H        1 UNK          0.0000
   75 O        87.2225   84.4294   69.2622 O.3      1 UNK          0.0000
   76 H        87.4270   83.8246   68.5253 H        1 UNK          0.0000
   77 C        86.6225   84.5599   71.6186 C.3      1 UNK          0.0000
   78 H        87.1231   85.5335   71.5206 H        1 UNK          0.0000
   79 O        85.1996   84.7085   71.6727 O.3      1 UNK          0.0000
   80 H        84.9212   85.1111   70.8282 H        1 UNK          0.0000
@<TRIPOS>BOND
     1     1     2   1 
     2     1     3   1 
     3     1     4   am
     4     4     5   2 
     5     4     6   1 
     6     6     7   ar
     7     6    14   ar
     8     7     8   1 
     9     7     9   ar
    10     9    10   1 
    11     9    11   ar
    12    11    12   1 
    13    11    13   ar
    14    13    14   ar
    15    13    16   1 
    16    14    15   1 
    17    16    17   1 
    18    16    18   1 
    19    16    77   1 
    20    18    19   1 
    21    19    20   1 
    22    19    21   1 
    23    19    73   1 
    24    21    22   1 
    25    21    23   1 
    26    21    24   1 
    27    24    25   1 
    28    25    26   1 
    29    25    28   1 
    30    25    30   1 
    31    26    27   1 
    32    28    29   1 
    33    30    31   1 
    34    31    32   1 
    35    31    34   1 
    36    31    36   1 
    37    32    33   1 
    38    34    35   1 
    39    36    37   1 
    40    37    38   1 
    41    37    39   1 
    42    37    40   1 
    43    40    41   1 
    44    40    42   1 
    45    40    55   1 
    46    42    43   1 
    47    43    44   1 
    48    43    45   1 
    49    43    59   1 
    50    45    46   1 
    51    45    47   1 
    52    45    55   1 
    53    47    48   1 
    54    48    49   1 
    55    48    51   1 
    56    48    53   1 
    57    49    50   1 
    58    51    52   1 
    59    53    54   1 
    60    55    56   1 
    61    55    57   1 
    62    57    58   1 
    63    59    60   1 
    64    59    64   1 
    65    60    61   1 
    66    60    62   2 
    67    62    63   1 
    68    63    64   ar
    69    63    69   ar
    70    64    65   ar
    71    65    66   ar
    72    66    67   1 
    73    66    68   ar
    74    68    69   ar
    75    69    70   1 
    76    70    71   1 
    77    70    72   1 
    78    73    74   1 
    79    73    75   1 
    80    73    77   1 
    81    75    76   1 
    82    77    78   1 
    83    77    79   1 
    84    79    80   1 
#MOLECULE END
 
#  inp11.mol2              8    of   10
#                 SCORE =  -309.9015
#              dG-SCORE =    -5.9986
#     LIGAND_EFFICIENCY =    -0.6456
# NUMBER_OF_HEAVY_ATOMS =         48
#                   ASA =  -251.4430
#                   ELE =     0.0000
#                   HYD =   -43.1706
#                   VDW =   -15.2879
#                  RMSD =    27.9263
@<TRIPOS>MOLECULE
inp11.mol2                                                                      
   80   84    0    0    0
SMALL       
GASTEIGER      
 
@<TRIPOS>ATOM
    1 N        90.3746   83.8450   77.4062 N.am     1 UNK          0.0000
    2 H        90.8451   82.9911   77.6924 H        1 UNK          0.0000
    3 H        89.4284   83.7997   77.0746 H        1 UNK          0.0000
    4 C        91.0370   85.0663   77.4632 C.2      1 UNK          0.0000
    5 O        90.3981   86.0303   77.0430 O.2      1 UNK          0.0000
    6 C        92.4399   85.1999   77.9673 C.ar     1 UNK          0.0000
    7 C        93.2168   86.3944   77.8400 C.ar     1 UNK          0.0000
    8 H        92.7616   87.2675   77.3505 H        1 UNK          0.0000
    9 C        94.5476   86.4765   78.2762 C.ar     1 UNK          0.0000
   10 H        95.1359   87.3628   78.1192 H        1 UNK          0.0000
   11 C        95.1744   85.3342   78.9179 C.ar     1 UNK          0.0000
   12 H        96.1909   85.4050   79.2828 H        1 UNK          0.0000
   13 N        94.4175   84.1315   79.0592 N.ar     1 UNK          0.0000
   14 C        93.1032   84.0560   78.5958 C.ar     1 UNK          0.0000
   15 H        92.5710   83.1190   78.6964 H        1 UNK          0.0000
   16 C        95.0364   82.9167   79.7116 C.3      1 UNK          0.0000
   17 H        96.0255   82.7648   79.2718 H        1 UNK          0.0000
   18 O        94.2450   81.7157   79.6785 O.3      1 UNK          0.0000
   19 C        94.9193   80.7294   80.5148 C.3      1 UNK          0.0000
   20 H        94.1890   80.0308   80.9154 H        1 UNK          0.0000
   21 C        96.0030   79.9101   79.7571 C.3      1 UNK          0.0000
   22 H        96.5660   79.3663   80.5031 H        1 UNK          0.0000
   23 H        95.5194   79.1804   79.0987 H        1 UNK          0.0000
   24 O        96.9573   80.7149   79.0453 O.3      1 UNK          0.0000
   25 P        96.8411   81.0023   77.4607 P.3      1 UNK          0.0000
   26 O        97.5337   82.4202   77.1641 O.3      1 UNK          0.0000
   27 H        97.4094   82.6239   76.2190 H        1 UNK          0.0000
   28 O        95.3015   81.1012   76.9919 O.3      1 UNK          0.0000
   29 H        94.8663   80.2407   77.1527 H        1 UNK          0.0000
   30 O        97.6069   79.8445   76.6480 O.3      1 UNK          0.0000
   31 P        96.9803   78.4862   76.0534 P.3      1 UNK          0.0000
   32 O        96.2729   78.7719   74.6353 O.3      1 UNK          0.0000
   33 H        96.9153   79.1450   74.0074 H        1 UNK          0.0000
   34 O        98.1771   77.4233   75.8957 O.3      1 UNK          0.0000
   35 H        98.8052   77.7440   75.2291 H        1 UNK          0.0000
   36 O        95.8846   77.8876   77.0820 O.3      1 UNK          0.0000
   37 C        95.6125   76.4741   77.1520 C.3      1 UNK          0.0000
   38 H        96.5359   75.9474   77.4166 H        1 UNK          0.0000
   39 H        94.8651   76.2909   77.9282 H        1 UNK          0.0000
   40 C        95.0645   75.8432   75.8612 C.3      1 UNK          0.0000
   41 H        95.6253   76.1330   74.9665 H        1 UNK          0.0000
   42 O        93.6733   76.1816   75.7239 O.3      1 UNK          0.0000
   43 C        93.1777   75.3159   74.6800 C.3      1 UNK          0.0000
   44 H        92.0948   75.2338   74.7851 H        1 UNK          0.0000
   45 C        93.8631   73.9481   75.0086 C.3      1 UNK          0.0000
   46 H        94.2589   73.4936   74.0957 H        1 UNK          0.0000
   47 O        93.0509   73.0018   75.7507 O.3      1 UNK          0.0000
   48 P        92.0319   73.3973   76.9477 P.3      1 UNK          0.0000
   49 O        92.4667   74.6611   77.8429 O.3      1 UNK          0.0000
   50 H        92.4722   75.4508   77.2738 H        1 UNK          0.0000
   51 O        91.8096   72.1739   77.9036 O.3      1 UNK          0.0000
   52 H        91.2817   71.4983   77.4685 H        1 UNK          0.0000
   53 O        90.6333   73.6567   76.2552 O.3      1 UNK          0.0000
   54 H        90.0004   73.9036   76.9391 H        1 UNK          0.0000
   55 C        94.9912   74.3168   75.9739 C.3      1 UNK          0.0000
   56 H        94.6647   74.0647   76.9916 H        1 UNK          0.0000
   57 O        96.1819   73.6033   75.6612 O.3      1 UNK          0.0000
   58 H        95.9248   72.6637   75.6059 H        1 UNK          0.0000
   59 N        93.4013   75.9314   73.3389 N.ar     1 UNK          0.0000
   60 C        93.6795   77.2796   73.0325 C.ar     1 UNK          0.0000
   61 H        93.8356   78.0089   73.8158 H        1 UNK          0.0000
   62 N        93.7152   77.5507   71.7182 N.ar     1 UNK          0.0000
   63 C        93.4700   76.3483   71.1552 C.ar     1 UNK          0.0000
   64 C        93.3304   75.3381   72.1112 C.ar     1 UNK          0.0000
   65 N        93.1120   74.0254   71.7404 N.ar     1 UNK          0.0000
   66 C        92.9317   73.7720   70.3789 C.ar     1 UNK          0.0000
   67 H        92.5359   72.7969   70.0924 H        1 UNK          0.0000
   68 N        93.0944   74.6906   69.3647 N.ar     1 UNK          0.0000
   69 C        93.3486   75.9918   69.7503 C.ar     1 UNK          0.0000
   70 N        93.4811   76.8889   68.7299 N.pl3    1 UNK          0.0000
   71 H        93.7219   77.8450   68.9303 H        1 UNK          0.0000
   72 H        93.3403   76.5723   67.7820 H        1 UNK          0.0000
   73 C        95.6205   81.5956   81.5939 C.3      1 UNK          0.0000
   74 H        96.6765   81.4676   81.3661 H        1 UNK          0.0000
   75 O        95.4430   81.5325   83.0218 O.3      1 UNK          0.0000
   76 H        95.7024   80.6730   83.3785 H        1 UNK          0.0000
   77 C        95.1174   82.9839   81.2027 C.3      1 UNK          0.0000
   78 H        94.1167   83.1484   81.6172 H        1 UNK          0.0000
   79 O        96.0476   83.9649   81.6380 O.3      1 UNK          0.0000
   80 H        96.3036   83.7332   82.5536 H        1 UNK          0.0000
@<TRIPOS>BOND
     1     1     2   1 
     2     1     3   1 
     3     1     4   am
     4     4     5   2 
     5     4     6   1 
     6     6     7   ar
     7     6    14   ar
     8     7     8   1 
     9     7     9   ar
    10     9    10   1 
    11     9    11   ar
    12    11    12   1 
    13    11    13   ar
    14    13    14   ar
    15    13    16   1 
    16    14    15   1 
    17    16    17   1 
    18    16    18   1 
    19    16    77   1 
    20    18    19   1 
    21    19    20   1 
    22    19    21   1 
    23    19    73   1 
    24    21    22   1 
    25    21    23   1 
    26    21    24   1 
    27    24    25   1 
    28    25    26   1 
    29    25    28   1 
    30    25    30   1 
    31    26    27   1 
    32    28    29   1 
    33    30    31   1 
    34    31    32   1 
    35    31    34   1 
    36    31    36   1 
    37    32    33   1 
    38    34    35   1 
    39    36    37   1 
    40    37    38   1 
    41    37    39   1 
    42    37    40   1 
    43    40    41   1 
    44    40    42   1 
    45    40    55   1 
    46    42    43   1 
    47    43    44   1 
    48    43    45   1 
    49    43    59   1 
    50    45    46   1 
    51    45    47   1 
    52    45    55   1 
    53    47    48   1 
    54    48    49   1 
    55    48    51   1 
    56    48    53   1 
    57    49    50   1 
    58    51    52   1 
    59    53    54   1 
    60    55    56   1 
    61    55    57   1 
    62    57    58   1 
    63    59    60   1 
    64    59    64   1 
    65    60    61   1 
    66    60    62   2 
    67    62    63   1 
    68    63    64   ar
    69    63    69   ar
    70    64    65   ar
    71    65    66   ar
    72    66    67   1 
    73    66    68   ar
    74    68    69   ar
    75    69    70   1 
    76    70    71   1 
    77    70    72   1 
    78    73    74   1 
    79    73    75   1 
    80    73    77   1 
    81    75    76   1 
    82    77    78   1 
    83    77    79   1 
    84    79    80   1 
#MOLECULE END
 
#  inp11.mol2              9    of   10
#                 SCORE =  -300.8544
#              dG-SCORE =    -5.6035
#     LIGAND_EFFICIENCY =    -0.6268
# NUMBER_OF_HEAVY_ATOMS =         48
#                   ASA =  -251.2441
#                   ELE =     0.0000
#                   HYD =   -33.6321
#                   VDW =   -15.9783
#                  RMSD =    28.5525
@<TRIPOS>MOLECULE
inp11.mol2                                                                      
   80   84    0    0    0
SMALL       
GASTEIGER      
 
@<TRIPOS>ATOM
    1 N        96.3889   81.0593   80.4591 N.am     1 UNK          0.0000
    2 H        96.3537   81.3481   79.4942 H        1 UNK          0.0000
    3 H        97.0302   80.3553   80.7346 H        1 UNK          0.0000
    4 C        95.5729   81.6714   81.3966 C.2      1 UNK          0.0000
    5 O        95.7625   81.3829   82.5723 O.2      1 UNK          0.0000
    6 C        94.5976   82.7123   81.0035 C.ar     1 UNK          0.0000
    7 C        93.7632   83.4037   81.9415 C.ar     1 UNK          0.0000
    8 H        93.8805   83.1501   83.0014 H        1 UNK          0.0000
    9 C        92.8779   84.4156   81.5601 C.ar     1 UNK          0.0000
   10 H        92.2601   84.9742   82.2728 H        1 UNK          0.0000
   11 C        92.7819   84.7837   80.1743 C.ar     1 UNK          0.0000
   12 H        92.1122   85.5396   79.8289 H        1 UNK          0.0000
   13 N        93.5598   84.0936   79.2331 N.ar     1 UNK          0.0000
   14 C        94.4824   83.1288   79.6250 C.ar     1 UNK          0.0000
   15 H        95.1370   82.6696   78.8847 H        1 UNK          0.0000
   16 C        93.2405   84.4305   77.8291 C.3      1 UNK          0.0000
   17 H        92.1925   84.1532   77.6761 H        1 UNK          0.0000
   18 O        94.1049   83.7135   76.9398 O.3      1 UNK          0.0000
   19 C        93.7734   84.1600   75.6092 C.3      1 UNK          0.0000
   20 H        94.6779   84.1097   74.9903 H        1 UNK          0.0000
   21 C        92.6665   83.2584   74.9579 C.3      1 UNK          0.0000
   22 H        92.4022   83.6845   73.9828 H        1 UNK          0.0000
   23 H        93.0644   82.2515   74.7765 H        1 UNK          0.0000
   24 O        91.4785   83.1819   75.7794 O.3      1 UNK          0.0000
   25 P        91.0863   81.8959   76.6775 P.3      1 UNK          0.0000
   26 O        90.0917   82.4113   77.8323 O.3      1 UNK          0.0000
   27 H        90.0131   81.7100   78.5038 H        1 UNK          0.0000
   28 O        92.3487   81.1923   77.3929 O.3      1 UNK          0.0000
   29 H        92.9035   80.7817   76.6980 H        1 UNK          0.0000
   30 O        90.3451   80.8271   75.7206 O.3      1 UNK          0.0000
   31 P        90.9133   79.5384   74.9154 P.3      1 UNK          0.0000
   32 O        91.3276   78.2567   75.8159 O.3      1 UNK          0.0000
   33 H        90.5343   77.8572   76.2121 H        1 UNK          0.0000
   34 O        89.7823   79.1184   73.8372 O.3      1 UNK          0.0000
   35 H        88.9875   78.7747   74.2782 H        1 UNK          0.0000
   36 O        92.2544   80.0137   74.1743 O.3      1 UNK          0.0000
   37 C        92.6900   79.3634   72.9749 C.3      1 UNK          0.0000
   38 H        91.9242   79.5217   72.2068 H        1 UNK          0.0000
   39 H        93.6246   79.8142   72.6283 H        1 UNK          0.0000
   40 C        92.8886   77.8417   73.1562 C.3      1 UNK          0.0000
   41 H        92.0172   77.3826   73.6256 H        1 UNK          0.0000
   42 O        94.0817   77.5383   73.9065 O.3      1 UNK          0.0000
   43 C        94.4026   76.1421   73.6833 C.3      1 UNK          0.0000
   44 H        95.4839   75.9979   73.7641 H        1 UNK          0.0000
   45 C        93.9347   75.9038   72.2047 C.3      1 UNK          0.0000
   46 H        93.2938   75.0282   72.1489 H        1 UNK          0.0000
   47 O        95.0511   75.7754   71.2764 O.3      1 UNK          0.0000
   48 P        96.4197   76.6649   71.2988 P.3      1 UNK          0.0000
   49 O        96.1389   78.1749   71.7821 O.3      1 UNK          0.0000
   50 H        95.7148   78.1499   72.6600 H        1 UNK          0.0000
   51 O        97.0454   76.7192   69.8251 O.3      1 UNK          0.0000
   52 H        97.2346   75.8170   69.5234 H        1 UNK          0.0000
   53 O        97.4608   75.9719   72.3097 O.3      1 UNK          0.0000
   54 H        98.2723   76.5060   72.3404 H        1 UNK          0.0000
   55 C        93.1525   77.1760   71.8171 C.3      1 UNK          0.0000
   56 H        93.8087   77.8329   71.2387 H        1 UNK          0.0000
   57 O        91.9498   76.9761   71.0843 O.3      1 UNK          0.0000
   58 H        92.1852   76.5613   70.2365 H        1 UNK          0.0000
   59 N        93.8599   75.2700   74.7480 N.ar     1 UNK          0.0000
   60 C        93.2172   75.6489   75.9500 C.ar     1 UNK          0.0000
   61 H        93.0271   76.6866   76.1874 H        1 UNK          0.0000
   62 N        92.8768   74.6202   76.7300 N.ar     1 UNK          0.0000
   63 C        93.3452   73.5627   76.0266 C.ar     1 UNK          0.0000
   64 C        93.9410   73.9043   74.8087 C.ar     1 UNK          0.0000
   65 N        94.4500   72.9464   73.9320 N.ar     1 UNK          0.0000
   66 C        94.1631   71.6286   74.2683 C.ar     1 UNK          0.0000
   67 H        94.1682   70.8956   73.4618 H        1 UNK          0.0000
   68 N        93.7896   71.2021   75.5395 N.ar     1 UNK          0.0000
   69 C        93.2565   72.1788   76.3772 C.ar     1 UNK          0.0000
   70 N        92.5194   71.8439   77.4924 N.pl3    1 UNK          0.0000
   71 H        92.0014   72.5786   77.9529 H        1 UNK          0.0000
   72 H        92.4460   70.8811   77.7940 H        1 UNK          0.0000
   73 C        93.3398   85.6442   75.8402 C.3      1 UNK          0.0000
   74 H        92.2816   85.7508   75.5645 H        1 UNK          0.0000
   75 O        94.1305   86.6129   75.1599 O.3      1 UNK          0.0000
   76 H        93.9602   86.5262   74.2062 H        1 UNK          0.0000
   77 C        93.4594   85.8508   77.3550 C.3      1 UNK          0.0000
   78 H        94.4636   86.1952   77.6354 H        1 UNK          0.0000
   79 O        92.4616   86.7544   77.7788 O.3      1 UNK          0.0000
   80 H        92.6217   87.5799   77.2987 H        1 UNK          0.0000
@<TRIPOS>BOND
     1     1     2   1 
     2     1     3   1 
     3     1     4   am
     4     4     5   2 
     5     4     6   1 
     6     6     7   ar
     7     6    14   ar
     8     7     8   1 
     9     7     9   ar
    10     9    10   1 
    11     9    11   ar
    12    11    12   1 
    13    11    13   ar
    14    13    14   ar
    15    13    16   1 
    16    14    15   1 
    17    16    17   1 
    18    16    18   1 
    19    16    77   1 
    20    18    19   1 
    21    19    20   1 
    22    19    21   1 
    23    19    73   1 
    24    21    22   1 
    25    21    23   1 
    26    21    24   1 
    27    24    25   1 
    28    25    26   1 
    29    25    28   1 
    30    25    30   1 
    31    26    27   1 
    32    28    29   1 
    33    30    31   1 
    34    31    32   1 
    35    31    34   1 
    36    31    36   1 
    37    32    33   1 
    38    34    35   1 
    39    36    37   1 
    40    37    38   1 
    41    37    39   1 
    42    37    40   1 
    43    40    41   1 
    44    40    42   1 
    45    40    55   1 
    46    42    43   1 
    47    43    44   1 
    48    43    45   1 
    49    43    59   1 
    50    45    46   1 
    51    45    47   1 
    52    45    55   1 
    53    47    48   1 
    54    48    49   1 
    55    48    51   1 
    56    48    53   1 
    57    49    50   1 
    58    51    52   1 
    59    53    54   1 
    60    55    56   1 
    61    55    57   1 
    62    57    58   1 
    63    59    60   1 
    64    59    64   1 
    65    60    61   1 
    66    60    62   2 
    67    62    63   1 
    68    63    64   ar
    69    63    69   ar
    70    64    65   ar
    71    65    66   ar
    72    66    67   1 
    73    66    68   ar
    74    68    69   ar
    75    69    70   1 
    76    70    71   1 
    77    70    72   1 
    78    73    74   1 
    79    73    75   1 
    80    73    77   1 
    81    75    76   1 
    82    77    78   1 
    83    77    79   1 
    84    79    80   1 
#MOLECULE END
 
#  inp11.mol2             10    of   10
#                 SCORE =  -281.7042
#              dG-SCORE =    -6.9483
#     LIGAND_EFFICIENCY =    -0.5869
# NUMBER_OF_HEAVY_ATOMS =         48
#                   ASA =  -152.3322
#                   ELE =     0.0000
#                   HYD =  -129.3720
#                   VDW =     0.0000
#                  RMSD =    32.1541
@<TRIPOS>MOLECULE
inp11.mol2                                                                      
   80   84    0    0    0
SMALL       
GASTEIGER      
 
@<TRIPOS>ATOM
    1 N        91.5138   75.6101   77.3061 N.am     1 UNK          0.0000
    2 H        91.3825   75.8360   76.3324 H        1 UNK          0.0000
    3 H        90.7345   75.6868   77.9455 H        1 UNK          0.0000
    4 C        92.7413   75.2172   77.7989 C.2      1 UNK          0.0000
    5 O        92.8104   74.9808   78.9896 O.2      1 UNK          0.0000
    6 C        93.9412   75.0866   76.8952 C.ar     1 UNK          0.0000
    7 C        95.1950   74.7504   77.4354 C.ar     1 UNK          0.0000
    8 H        95.3113   74.5813   78.5030 H        1 UNK          0.0000
    9 C        96.3096   74.6362   76.5956 C.ar     1 UNK          0.0000
   10 H        97.2794   74.3799   77.0163 H        1 UNK          0.0000
   11 C        96.1818   74.8541   75.2156 C.ar     1 UNK          0.0000
   12 H        97.0476   74.7767   74.5534 H        1 UNK          0.0000
   13 N        94.9401   75.1886   74.6520 N.ar     1 UNK          0.0000
   14 C        93.8238   75.2994   75.5058 C.ar     1 UNK          0.0000
   15 H        92.8613   75.5571   75.0630 H        1 UNK          0.0000
   16 C        94.8626   75.5058   73.2043 C.3      1 UNK          0.0000
   17 H        95.6194   76.2685   72.9826 H        1 UNK          0.0000
   18 O        93.5501   75.9716   72.8395 O.3      1 UNK          0.0000
   19 C        93.4427   75.9678   71.3941 C.3      1 UNK          0.0000
   20 H        92.4214   75.6864   71.1027 H        1 UNK          0.0000
   21 C        93.7594   77.3758   70.8009 C.3      1 UNK          0.0000
   22 H        93.8267   77.2973   69.7083 H        1 UNK          0.0000
   23 H        92.9354   78.0633   71.0288 H        1 UNK          0.0000
   24 O        95.0059   77.8854   71.3229 O.3      1 UNK          0.0000
   25 P        95.0756   78.9706   72.5251 P.3      1 UNK          0.0000
   26 O        96.4157   78.6974   73.3715 O.3      1 UNK          0.0000
   27 H        96.5111   79.3970   74.0410 H        1 UNK          0.0000
   28 O        93.8271   78.8042   73.5257 O.3      1 UNK          0.0000
   29 H        93.0179   79.1023   73.0701 H        1 UNK          0.0000
   30 O        95.1176   80.4645   71.9267 O.3      1 UNK          0.0000
   31 P        93.8650   81.4598   71.7537 P.3      1 UNK          0.0000
   32 O        93.5952   82.2441   73.1302 O.3      1 UNK          0.0000
   33 H        94.3776   82.7714   73.3651 H        1 UNK          0.0000
   34 O        94.2179   82.4998   70.5782 O.3      1 UNK          0.0000
   35 H        95.0216   82.9959   70.8073 H        1 UNK          0.0000
   36 O        92.5610   80.5969   71.3294 O.3      1 UNK          0.0000
   37 C        91.5736   81.1030   70.4033 C.3      1 UNK          0.0000
   38 H        92.0617   81.4261   69.4751 H        1 UNK          0.0000
   39 H        90.8625   80.3074   70.1481 H        1 UNK          0.0000
   40 C        90.8045   82.2964   71.0250 C.3      1 UNK          0.0000
   41 H        91.4936   83.0398   71.4450 H        1 UNK          0.0000
   42 O        89.8971   81.8114   72.0371 O.3      1 UNK          0.0000
   43 C        88.9698   82.8805   72.3302 C.3      1 UNK          0.0000
   44 H        88.0405   82.4813   72.7505 H        1 UNK          0.0000
   45 C        88.7417   83.5623   70.9435 C.3      1 UNK          0.0000
   46 H        88.8645   84.6486   71.0347 H        1 UNK          0.0000
   47 O        87.4324   83.2629   70.3869 O.3      1 UNK          0.0000
   48 P        86.7004   81.8153   70.4241 P.3      1 UNK          0.0000
   49 O        87.7673   80.6166   70.3232 O.3      1 UNK          0.0000
   50 H        88.3800   80.6753   71.0775 H        1 UNK          0.0000
   51 O        85.6935   81.7283   69.1791 O.3      1 UNK          0.0000
   52 H        85.0607   82.4647   69.2281 H        1 UNK          0.0000
   53 O        85.8625   81.6763   71.7876 O.3      1 UNK          0.0000
   54 H        85.3793   80.8328   71.7793 H        1 UNK          0.0000
   55 C        89.8518   82.9852   70.0354 C.3      1 UNK          0.0000
   56 H        89.4293   82.2351   69.3565 H        1 UNK          0.0000
   57 O        90.5174   83.9937   69.2732 O.3      1 UNK          0.0000
   58 H        89.8589   84.3921   68.6750 H        1 UNK          0.0000
   59 N        89.5488   83.7600   73.3611 N.ar     1 UNK          0.0000
   60 C        90.6451   83.5142   74.2054 C.ar     1 UNK          0.0000
   61 H        91.2329   82.6096   74.1224 H        1 UNK          0.0000
   62 N        90.8472   84.4907   75.1034 N.ar     1 UNK          0.0000
   63 C        89.8364   85.3519   74.8378 C.ar     1 UNK          0.0000
   64 C        89.0322   84.9431   73.8087 C.ar     1 UNK          0.0000
   65 N        87.9594   85.6513   73.4037 N.ar     1 UNK          0.0000
   66 C        87.7413   86.8006   74.0865 C.ar     1 UNK          0.0000
   67 H        86.8798   87.3924   73.7802 H        1 UNK          0.0000
   68 N        88.4801   87.2920   75.1124 N.ar     1 UNK          0.0000
   69 C        89.5460   86.5596   75.4999 C.ar     1 UNK          0.0000
   70 N        90.3224   87.0108   76.5405 N.pl3    1 UNK          0.0000
   71 H        91.2220   86.5754   76.6823 H        1 UNK          0.0000
   72 H        90.1928   87.9645   76.8453 H        1 UNK          0.0000
   73 C        94.4471   74.8689   70.9354 C.3      1 UNK          0.0000
   74 H        95.2503   75.3255   70.3403 H        1 UNK          0.0000
   75 O        93.8093   73.8303   70.1927 O.3      1 UNK          0.0000
   76 H        93.9075   74.0254   69.2430 H        1 UNK          0.0000
   77 C        95.0348   74.3184   72.2493 C.3      1 UNK          0.0000
   78 H        94.4155   73.4820   72.6016 H        1 UNK          0.0000
   79 O        96.3982   73.9115   72.1213 O.3      1 UNK          0.0000
   80 H        96.4391   73.2294   71.4241 H        1 UNK          0.0000
@<TRIPOS>BOND
     1     1     2   1 
     2     1     3   1 
     3     1     4   am
     4     4     5   2 
     5     4     6   1 
     6     6     7   ar
     7     6    14   ar
     8     7     8   1 
     9     7     9   ar
    10     9    10   1 
    11     9    11   ar
    12    11    12   1 
    13    11    13   ar
    14    13    14   ar
    15    13    16   1 
    16    14    15   1 
    17    16    17   1 
    18    16    18   1 
    19    16    77   1 
    20    18    19   1 
    21    19    20   1 
    22    19    21   1 
    23    19    73   1 
    24    21    22   1 
    25    21    23   1 
    26    21    24   1 
    27    24    25   1 
    28    25    26   1 
    29    25    28   1 
    30    25    30   1 
    31    26    27   1 
    32    28    29   1 
    33    30    31   1 
    34    31    32   1 
    35    31    34   1 
    36    31    36   1 
    37    32    33   1 
    38    34    35   1 
    39    36    37   1 
    40    37    38   1 
    41    37    39   1 
    42    37    40   1 
    43    40    41   1 
    44    40    42   1 
    45    40    55   1 
    46    42    43   1 
    47    43    44   1 
    48    43    45   1 
    49    43    59   1 
    50    45    46   1 
    51    45    47   1 
    52    45    55   1 
    53    47    48   1 
    54    48    49   1 
    55    48    51   1 
    56    48    53   1 
    57    49    50   1 
    58    51    52   1 
    59    53    54   1 
    60    55    56   1 
    61    55    57   1 
    62    57    58   1 
    63    59    60   1 
    64    59    64   1 
    65    60    61   1 
    66    60    62   2 
    67    62    63   1 
    68    63    64   ar
    69    63    69   ar
    70    64    65   ar
    71    65    66   ar
    72    66    67   1 
    73    66    68   ar
    74    68    69   ar
    75    69    70   1 
    76    70    71   1 
    77    70    72   1 
    78    73    74   1 
    79    73    75   1 
    80    73    77   1 
    81    75    76   1 
    82    77    78   1 
    83    77    79   1 
    84    79    80   1 
#MOLECULE END
 
