@<TRIPOS>COMMENT
   inp11.mol2              3    of   10
                  SCORE =  -296.2559
               dG-SCORE =    -6.3163
      LIGAND_EFFICIENCY =    -0.9557
  NUMBER_OF_HEAVY_ATOMS =         31
                    ASA =  -234.7767
                    ELE =     0.0000
                    HYD =   -54.9188
                    VDW =    -6.5604
                   RMSD =    29.6761
 MOLECULAR_WEIGHT = 458.36
@<TRIPOS>MOLECULE
inp11.mol2                                                                      
   54   56    0    0    0
SMALL       
GASTEIGER      
 
@<TRIPOS>ATOM
    1 C        92.4289   80.1618   77.6172 C.2      1 UNK          0.0000
    2 C        92.6506   78.9093   78.0853 C.2      1 UNK          0.0000
    3 C        92.7184   77.6527   77.2021 C.3      1 UNK          0.0000
    4 H        93.5927   77.0717   77.5178 H        1 UNK          0.0000
    5 H        91.8405   77.0387   77.4498 H        1 UNK          0.0000
    6 C        92.8005   77.9330   75.7077 C.ar     1 UNK          0.0000
    7 C        92.5553   79.2652   75.1861 C.ar     1 UNK          0.0000
    8 C        92.3223   80.4800   76.1347 C.3      1 UNK          0.0000
    9 H        91.3597   80.9477   75.8987 H        1 UNK          0.0000
   10 H        93.0667   81.2470   75.8886 H        1 UNK          0.0000
   11 N        93.1217   76.8627   74.7393 N.ar     1 UNK          0.0000
   12 C        93.1387   77.2030   73.3421 C.ar     1 UNK          0.0000
   13 C        92.8223   78.5890   72.9273 C.ar     1 UNK          0.0000
   14 N        92.5400   79.5667   73.8755 N.ar     1 UNK          0.0000
   15 N        93.3989   76.2496   72.3431 N.ar     1 UNK          0.0000
   16 C        93.3441   76.6346   71.0349 C.ar     1 UNK          0.0000
   17 N        93.0562   77.8918   70.5759 N.ar     1 UNK          0.0000
   18 C        92.8103   78.8776   71.5201 C.ar     1 UNK          0.0000
   19 C        92.2812   81.4025   78.5198 C.3      1 UNK          0.0000
   20 H        91.4498   82.0308   78.1829 H        1 UNK          0.0000
   21 H        92.0752   81.1496   79.5610 H        1 UNK          0.0000
   22 H        93.1849   82.0199   78.4897 H        1 UNK          0.0000
   23 C        92.9277   78.5629   79.4999 C.3      1 UNK          0.0000
   24 H        93.9109   78.1133   79.5754 H        1 UNK          0.0000
   25 H        92.9847   79.4541   80.1206 H        1 UNK          0.0000
   26 H        92.1893   77.8524   79.8837 H        1 UNK          0.0000
   27 O        93.6026   75.6729   70.1112 O.3      1 UNK          0.0000
   28 H        93.5179   76.0727   69.2258 H        1 UNK          0.0000
   29 O        92.5691   80.1262   71.0186 O.3      1 UNK          0.0000
   30 H        92.4446   80.7636   71.7496 H        1 UNK          0.0000
   31 C        93.2556   75.4170   75.1721 C.3      1 UNK          0.0000
   32 H        93.0180   75.3218   76.2391 H        1 UNK          0.0000
   33 H        92.4506   74.8817   74.6491 H        1 UNK          0.0000
   34 C        94.5540   74.6182   74.8578 C.3      1 UNK          0.0000
   35 O        95.7086   75.2668   74.6332 O.3      1 UNK          0.0000
   36 H        95.5830   75.9690   73.9670 H        1 UNK          0.0000
   37 C        94.5947   73.0654   74.8714 C.3      1 UNK          0.0000
   38 H        93.6084   72.6381   75.1303 H        1 UNK          0.0000
   39 O        94.9950   72.6216   73.5531 O.3      1 UNK          0.0000
   40 H        95.0451   71.6483   73.4774 H        1 UNK          0.0000
   41 C        95.5168   72.5167   75.9766 C.3      1 UNK          0.0000
   42 C        95.9098   73.3365   77.2232 C.3      1 UNK          0.0000
   43 H        96.1048   72.6637   78.0748 H        1 UNK          0.0000
   44 H        96.7765   73.9870   77.0458 H        1 UNK          0.0000
   45 O        94.8159   74.1567   77.6127 O.3      1 UNK          0.0000
   46 O        95.8440   71.2226   75.9069 O.3      1 UNK          0.0000
   47 H        96.6795   71.0450   76.3816 H        1 UNK          0.0000
   48 P        93.7377   73.3974   78.4873 P.3      1 UNK          0.0000
   49 O        93.1839   72.1958   77.5605 O.3      1 UNK          0.0000
   50 H        92.4464   71.7306   77.9910 H        1 UNK          0.0000
   51 O        92.5770   74.4366   78.7989 O.3      1 UNK          0.0000
   52 H        91.9648   74.0229   79.4283 H        1 UNK          0.0000
   53 O        94.5691   72.9216   79.7784 O.3      1 UNK          0.0000
   54 H        94.4666   73.5457   80.5057 H        1 UNK          0.0000
@<TRIPOS>BOND
     1     1     2   2 
     2     1     8   1 
     3     1    19   1 
     4     2     3   1 
     5     2    23   1 
     6     3     4   1 
     7     3     5   1 
     8     3     6   1 
     9     6     7   ar
    10     6    11   ar
    11     7     8   1 
    12     7    14   ar
    13     8     9   1 
    14     8    10   1 
    15    11    12   ar
    16    11    31   1 
    17    12    13   ar
    18    12    15   ar
    19    13    14   ar
    20    13    18   ar
    21    15    16   ar
    22    16    17   ar
    23    16    27   1 
    24    17    18   ar
    25    18    29   1 
    26    19    20   1 
    27    19    21   1 
    28    19    22   1 
    29    23    24   1 
    30    23    25   1 
    31    23    26   1 
    32    27    28   1 
    33    29    30   1 
    34    31    32   1 
    35    31    33   1 
    36    31    34   1 
    37    34    35   1 
    38    34    37   1 
    39    35    36   1 
    40    37    38   1 
    41    37    39   1 
    42    37    41   1 
    43    39    40   1 
    44    41    42   1 
    45    41    46   1 
    46    42    43   1 
    47    42    44   1 
    48    42    45   1 
    49    45    48   1 
    50    46    47   1 
    51    48    49   1 
    52    48    51   1 
    53    48    53   1 
    54    49    50   1 
    55    51    52   1 
    56    53    54   1 
 
