@<TRIPOS>COMMENT
   inp11.mol2              5    of   10
                  SCORE =  -295.3198
               dG-SCORE =    -6.1218
      LIGAND_EFFICIENCY =    -0.9526
  NUMBER_OF_HEAVY_ATOMS =         31
                    ASA =  -241.1014
                    ELE =     0.0000
                    HYD =   -46.1427
                    VDW =    -8.0758
                   RMSD =    30.4747
 MOLECULAR_WEIGHT = 458.36
@<TRIPOS>MOLECULE
inp11.mol2                                                                      
   54   56    0    0    0
SMALL       
GASTEIGER      
 
@<TRIPOS>ATOM
    1 C        93.1435   81.2666   79.3947 C.2      1 UNK          0.0000
    2 C        93.4949   79.9635   79.4706 C.2      1 UNK          0.0000
    3 C        93.0663   78.8777   78.4726 C.3      1 UNK          0.0000
    4 H        93.9658   78.2918   78.2389 H        1 UNK          0.0000
    5 H        92.3812   78.1822   78.9766 H        1 UNK          0.0000
    6 C        92.4750   79.4308   77.1889 C.ar     1 UNK          0.0000
    7 C        92.1417   80.8348   77.0598 C.ar     1 UNK          0.0000
    8 C        92.3410   81.8212   78.2310 C.3      1 UNK          0.0000
    9 H        91.3435   82.1558   78.5130 H        1 UNK          0.0000
   10 H        92.8513   82.7134   77.8493 H        1 UNK          0.0000
   11 N        92.2586   78.5656   76.0249 N.ar     1 UNK          0.0000
   12 C        91.7729   79.1862   74.8150 C.ar     1 UNK          0.0000
   13 C        91.4312   80.6280   74.8207 C.ar     1 UNK          0.0000
   14 N        91.6450   81.3997   75.9508 N.ar     1 UNK          0.0000
   15 N        91.6003   78.4929   73.6120 N.ar     1 UNK          0.0000
   16 C        91.0310   79.1165   72.5393 C.ar     1 UNK          0.0000
   17 N        90.6416   80.4285   72.4950 N.ar     1 UNK          0.0000
   18 C        90.8661   81.1971   73.6286 C.ar     1 UNK          0.0000
   19 C        93.6468   82.3416   80.3754 C.3      1 UNK          0.0000
   20 H        92.8476   83.0125   80.6584 H        1 UNK          0.0000
   21 H        94.0267   81.9405   81.3073 H        1 UNK          0.0000
   22 H        94.4412   82.9472   79.9381 H        1 UNK          0.0000
   23 C        94.4703   79.3682   80.4051 C.3      1 UNK          0.0000
   24 H        95.2182   78.8162   79.8394 H        1 UNK          0.0000
   25 H        95.0118   80.0994   81.0185 H        1 UNK          0.0000
   26 H        93.9696   78.6444   81.0541 H        1 UNK          0.0000
   27 O        90.8506   78.3518   71.4274 O.3      1 UNK          0.0000
   28 H        90.5006   78.9197   70.7148 H        1 UNK          0.0000
   29 O        90.5227   82.5154   73.5329 O.3      1 UNK          0.0000
   30 H        90.7699   82.9844   74.3549 H        1 UNK          0.0000
   31 C        92.5357   77.0817   76.1383 C.3      1 UNK          0.0000
   32 H        92.6938   76.8009   77.1831 H        1 UNK          0.0000
   33 H        91.5918   76.6053   75.8708 H        1 UNK          0.0000
   34 C        93.6904   76.4962   75.2510 C.3      1 UNK          0.0000
   35 O        94.6483   77.3461   74.8419 O.3      1 UNK          0.0000
   36 H        94.3769   77.7795   74.0068 H        1 UNK          0.0000
   37 C        93.8008   75.0229   74.7331 C.3      1 UNK          0.0000
   38 H        93.0988   74.3522   75.2494 H        1 UNK          0.0000
   39 O        93.4700   75.0957   73.3320 O.3      1 UNK          0.0000
   40 H        93.6257   74.2426   72.8770 H        1 UNK          0.0000
   41 C        95.1659   74.3109   74.9735 C.3      1 UNK          0.0000
   42 C        96.0303   74.5982   76.2086 C.3      1 UNK          0.0000
   43 H        96.6200   73.7254   76.4926 H        1 UNK          0.0000
   44 H        96.7375   75.4165   75.9989 H        1 UNK          0.0000
   45 O        95.1479   74.9526   77.2867 O.3      1 UNK          0.0000
   46 O        95.5635   73.3433   74.1271 O.3      1 UNK          0.0000
   47 H        96.4566   73.0285   74.3648 H        1 UNK          0.0000
   48 P        94.2565   73.8887   78.1228 P.3      1 UNK          0.0000
   49 O        93.4712   72.8864   77.1701 O.3      1 UNK          0.0000
   50 H        92.8811   72.3717   77.7581 H        1 UNK          0.0000
   51 O        93.0941   74.7402   78.8243 O.3      1 UNK          0.0000
   52 H        92.7373   74.2485   79.5838 H        1 UNK          0.0000
   53 O        95.2000   73.0270   79.1012 O.3      1 UNK          0.0000
   54 H        95.8456   73.5790   79.5821 H        1 UNK          0.0000
@<TRIPOS>BOND
     1     1     2   2 
     2     1     8   1 
     3     1    19   1 
     4     2     3   1 
     5     2    23   1 
     6     3     4   1 
     7     3     5   1 
     8     3     6   1 
     9     6     7   ar
    10     6    11   ar
    11     7     8   1 
    12     7    14   ar
    13     8     9   1 
    14     8    10   1 
    15    11    12   ar
    16    11    31   1 
    17    12    13   ar
    18    12    15   ar
    19    13    14   ar
    20    13    18   ar
    21    15    16   ar
    22    16    17   ar
    23    16    27   1 
    24    17    18   ar
    25    18    29   1 
    26    19    20   1 
    27    19    21   1 
    28    19    22   1 
    29    23    24   1 
    30    23    25   1 
    31    23    26   1 
    32    27    28   1 
    33    29    30   1 
    34    31    32   1 
    35    31    33   1 
    36    31    34   1 
    37    34    35   1 
    38    34    37   1 
    39    35    36   1 
    40    37    38   1 
    41    37    39   1 
    42    37    41   1 
    43    39    40   1 
    44    41    42   1 
    45    41    46   1 
    46    42    43   1 
    47    42    44   1 
    48    42    45   1 
    49    45    48   1 
    50    46    47   1 
    51    48    49   1 
    52    48    51   1 
    53    48    53   1 
    54    49    50   1 
    55    51    52   1 
    56    53    54   1 
 
