inp11.mol2
     Hgene          

 31 33  0  0  0  0               V2000
   94.1738   72.7020   75.9378 C   0  0  0  0  0
   93.5386   73.8792   75.7882 C   0  0  0  0  0
   93.8620   74.8590   74.6713 C   0  0  0  0  0
   94.8603   74.3577   73.6195 C   0  0  0  0  0
   95.5114   73.1184   73.7878 C   0  0  0  0  0
   95.2757   72.2319   75.0030 C   0  0  0  0  0
   95.1410   75.1317   72.4573 N   0  0  0  0  0
   96.0194   74.5812   71.4895 C   0  0  0  0  0
   96.6284   73.3182   71.7592 C   0  0  0  0  0
   96.3735   72.6273   72.8848 N   0  0  0  0  0
   96.2878   75.2164   70.3288 N   0  0  0  0  0
   97.1360   74.6416   69.4606 C   0  0  0  0  0
   97.7598   73.4697   69.6272 N   0  0  0  0  0
   97.5094   72.8095   70.7719 C   0  0  0  0  0
   93.9318   71.7150   77.0782 C   0  0  0  0  0
   92.4067   74.3782   76.6856 C   0  0  0  0  0
   97.3604   75.3140   68.3055 O   0  0  0  0  0
   98.1364   71.6087   70.9319 O   0  0  0  0  0
   94.6438   76.5473   72.2609 C   0  0  0  0  0
   93.5843   76.7496   71.1315 C   0  0  0  0  0
   92.9238   75.6637   70.6888 O   0  0  0  0  0
   93.1721   78.1263   70.5200 C   0  0  0  0  0
   93.8688   78.2840   69.2597 O   0  0  0  0  0
   91.6467   78.2564   70.3055 C   0  0  0  0  0
   90.6661   77.9078   71.4341 C   0  0  0  0  0
   91.4138   77.6696   72.6447 O   0  0  0  0  0
   91.2652   79.2105   69.4421 O   0  0  0  0  0
   91.6135   78.8316   73.7442 P   0  0  2  0  0
   92.3582   80.0558   73.0185 O   0  0  0  0  0
   92.5651   78.2511   74.8968 O   0  0  0  0  0
   90.1933   79.2838   74.3266 O   0  0  0  0  0
  1  2  2  0
  1  6  1  0
  1 15  1  0
  2  3  1  0
  2 16  1  0
  3  4  1  0
  4  5  4  0
  4  7  4  0
  5  6  1  0
  5 10  4  0
  7  8  4  0
  7 19  1  0
  8  9  4  0
  8 11  4  0
  9 10  4  0
  9 14  4  0
 11 12  4  0
 12 13  4  0
 12 17  1  0
 13 14  4  0
 14 18  1  0
 19 20  1  0
 20 21  1  0
 20 22  1  0
 22 23  1  0
 22 24  1  0
 24 25  1  0
 24 27  1  0
 25 26  1  0
 26 28  1  0
 28 29  1  0
 28 30  1  0
 28 31  1  0
M  END
$$$$
