inp11.mol2
     Hgene          

 31 33  0  0  0  0               V2000
   89.3421   82.3069   74.7471 C   0  0  0  0  0
   90.0804   82.1820   75.8656 C   0  0  0  0  0
   91.0449   81.0297   76.0970 C   0  0  0  0  0
   91.2471   80.0858   74.9043 C   0  0  0  0  0
   90.4705   80.2354   73.7369 C   0  0  0  0  0
   89.4012   81.3107   73.6011 C   0  0  0  0  0
   92.2229   79.0495   74.9551 N   0  0  0  0  0
   92.4093   78.2560   73.7946 C   0  0  0  0  0
   91.5673   78.4887   72.6652 C   0  0  0  0  0
   90.6271   79.4505   72.6603 N   0  0  0  0  0
   93.3577   77.2971   73.7328 N   0  0  0  0  0
   93.4737   76.5769   72.6053 C   0  0  0  0  0
   92.7290   76.7147   71.5023 N   0  0  0  0  0
   91.7781   77.6655   71.5304 C   0  0  0  0  0
   88.3131   83.4074   74.4953 C   0  0  0  0  0
   90.0743   83.1738   77.0282 C   0  0  0  0  0
   94.4498   75.6369   72.5907 O   0  0  0  0  0
   91.0302   77.8123   70.3991 O   0  0  0  0  0
   92.9815   78.6827   76.2120 C   0  0  0  0  0
   94.5122   78.9927   76.2020 C   0  0  0  0  0
   94.9687   79.8712   75.2902 O   0  0  0  0  0
   95.5532   78.4202   77.2157 C   0  0  0  0  0
   96.2411   77.3167   76.5773 O   0  0  0  0  0
   96.5732   79.4795   77.6927 C   0  0  0  0  0
   96.0990   80.8494   78.1977 C   0  0  0  0  0
   94.6606   80.8336   78.3082 O   0  0  0  0  0
   97.7027   78.9917   78.2290 O   0  0  0  0  0
   93.9352   80.5307   79.7157 P   0  0  2  0  0
   94.4147   79.0760   80.1992 O   0  0  0  0  0
   92.3543   80.4976   79.4500 O   0  0  0  0  0
   94.3280   81.6532   80.7864 O   0  0  0  0  0
  1  2  2  0
  1  6  1  0
  1 15  1  0
  2  3  1  0
  2 16  1  0
  3  4  1  0
  4  5  4  0
  4  7  4  0
  5  6  1  0
  5 10  4  0
  7  8  4  0
  7 19  1  0
  8  9  4  0
  8 11  4  0
  9 10  4  0
  9 14  4  0
 11 12  4  0
 12 13  4  0
 12 17  1  0
 13 14  4  0
 14 18  1  0
 19 20  1  0
 20 21  1  0
 20 22  1  0
 22 23  1  0
 22 24  1  0
 24 25  1  0
 24 27  1  0
 25 26  1  0
 26 28  1  0
 28 29  1  0
 28 30  1  0
 28 31  1  0
M  END
$$$$
