inp11.mol2
     Hgene          

 31 33  0  0  0  0               V2000
   91.2279   78.5877   72.1931 C   0  0  0  0  0
   91.9294   77.4402   72.2447 C   0  0  0  0  0
   92.8611   77.0899   73.3941 C   0  0  0  0  0
   92.8408   78.0607   74.5821 C   0  0  0  0  0
   92.0943   79.2550   74.5145 C   0  0  0  0  0
   91.2934   79.6472   73.2804 C   0  0  0  0  0
   93.5696   77.7696   75.7707 N   0  0  0  0  0
   93.4536   78.6724   76.8582 C   0  0  0  0  0
   92.6730   79.8553   76.6841 C   0  0  0  0  0
   92.0265   80.1227   75.5353 N   0  0  0  0  0
   94.0558   78.4397   78.0439 N   0  0  0  0  0
   93.9109   79.3414   79.0285 C   0  0  0  0  0
   93.2096   80.4786   78.9584 N   0  0  0  0  0
   92.5933   80.7372   77.7912 C   0  0  0  0  0
   90.3314   79.0146   71.0323 C   0  0  0  0  0
   91.8716   76.3359   71.1898 C   0  0  0  0  0
   94.5243   79.0531   80.2021 O   0  0  0  0  0
   91.8679   81.8907   77.7282 O   0  0  0  0  0
   94.5426   76.6167   75.8882 C   0  0  0  0  0
   94.1206   75.4607   76.8497 C   0  0  0  0  0
   92.8224   75.3732   77.1941 O   0  0  0  0  0
   95.0724   74.3468   77.3904 C   0  0  0  0  0
   95.4624   74.7056   78.7387 O   0  0  0  0  0
   94.4235   72.9438   77.3789 C   0  0  0  0  0
   93.7193   72.4185   76.1200 C   0  0  0  0  0
   93.9632   73.3347   75.0325 O   0  0  0  0  0
   95.0055   72.0329   78.1745 O   0  0  0  0  0
   95.1477   73.0729   73.9708 P   0  0  2  0  0
   96.5255   73.0142   74.7942 O   0  0  0  0  0
   95.1898   74.3262   72.9716 O   0  0  0  0  0
   94.8860   71.7034   73.1855 O   0  0  0  0  0
  1  2  2  0
  1  6  1  0
  1 15  1  0
  2  3  1  0
  2 16  1  0
  3  4  1  0
  4  5  4  0
  4  7  4  0
  5  6  1  0
  5 10  4  0
  7  8  4  0
  7 19  1  0
  8  9  4  0
  8 11  4  0
  9 10  4  0
  9 14  4  0
 11 12  4  0
 12 13  4  0
 12 17  1  0
 13 14  4  0
 14 18  1  0
 19 20  1  0
 20 21  1  0
 20 22  1  0
 22 23  1  0
 22 24  1  0
 24 25  1  0
 24 27  1  0
 25 26  1  0
 26 28  1  0
 28 29  1  0
 28 30  1  0
 28 31  1  0
M  END
$$$$
