@<TRIPOS>COMMENT
   inp11.mol2              9    of   10
                  SCORE =  -293.0144
               dG-SCORE =    -7.1902
      LIGAND_EFFICIENCY =    -0.9452
  NUMBER_OF_HEAVY_ATOMS =         31
                    ASA =  -185.2525
                    ELE =     0.0000
                    HYD =  -107.7619
                    VDW =     0.0000
                   RMSD =    29.6783
 MOLECULAR_WEIGHT = 458.36
@<TRIPOS>MOLECULE
inp11.mol2                                                                      
   54   56    0    0    0
SMALL       
GASTEIGER      
 
@<TRIPOS>ATOM
    1 C        92.4447   80.1321   77.5884 C.2      1 UNK          0.0000
    2 C        92.6386   78.8868   78.0610 C.2      1 UNK          0.0000
    3 C        92.7238   77.6637   77.1618 C.3      1 UNK          0.0000
    4 H        93.6320   77.1065   77.4220 H        1 UNK          0.0000
    5 H        91.8772   77.0100   77.4104 H        1 UNK          0.0000
    6 C        92.7295   77.9493   75.6543 C.ar     1 UNK          0.0000
    7 C        92.5326   79.2612   75.1763 C.ar     1 UNK          0.0000
    8 C        92.2953   80.4415   76.1082 C.3      1 UNK          0.0000
    9 H        91.2934   80.8539   75.9265 H        1 UNK          0.0000
   10 H        92.9941   81.2488   75.8471 H        1 UNK          0.0000
   11 N        92.9381   76.8979   74.7164 N.ar     1 UNK          0.0000
   12 C        93.0020   77.2383   73.3411 C.ar     1 UNK          0.0000
   13 C        92.7863   78.5982   72.9630 C.ar     1 UNK          0.0000
   14 N        92.5529   79.5640   73.8696 N.ar     1 UNK          0.0000
   15 N        93.2629   76.3155   72.3908 N.ar     1 UNK          0.0000
   16 C        93.3003   76.7057   71.1064 C.ar     1 UNK          0.0000
   17 N        93.1036   77.9497   70.6549 N.ar     1 UNK          0.0000
   18 C        92.8462   78.8936   71.5777 C.ar     1 UNK          0.0000
   19 C        92.2867   81.3819   78.4525 C.3      1 UNK          0.0000
   20 H        91.4711   82.0131   78.0764 H        1 UNK          0.0000
   21 H        92.0392   81.1651   79.4975 H        1 UNK          0.0000
   22 H        93.1989   81.9928   78.4304 H        1 UNK          0.0000
   23 C        92.8230   78.5341   79.5364 C.3      1 UNK          0.0000
   24 H        93.6559   77.8314   79.6711 H        1 UNK          0.0000
   25 H        93.0586   79.3992   80.1657 H        1 UNK          0.0000
   26 H        91.9244   78.0503   79.9380 H        1 UNK          0.0000
   27 O        93.5794   75.7431   70.1941 O.3      1 UNK          0.0000
   28 H        93.5455   76.1446   69.3039 H        1 UNK          0.0000
   29 O        92.6601   80.1631   71.1147 O.3      1 UNK          0.0000
   30 H        92.4614   80.7721   71.8502 H        1 UNK          0.0000
   31 C        92.9790   75.4353   75.1024 C.3      1 UNK          0.0000
   32 H        92.6289   75.3256   76.1363 H        1 UNK          0.0000
   33 H        92.2327   74.9148   74.4836 H        1 UNK          0.0000
   34 C        94.3631   74.7274   74.9544 C.3      1 UNK          0.0000
   35 O        95.4597   75.5037   74.8731 O.3      1 UNK          0.0000
   36 H        95.6415   75.7579   73.9458 H        1 UNK          0.0000
   37 C        94.5898   73.1822   74.9665 C.3      1 UNK          0.0000
   38 H        93.7421   72.6497   75.4335 H        1 UNK          0.0000
   39 O        94.7347   72.7393   73.5948 O.3      1 UNK          0.0000
   40 H        95.2342   71.8936   73.5189 H        1 UNK          0.0000
   41 C        95.8252   72.7622   75.7954 C.3      1 UNK          0.0000
   42 C        96.0308   73.2991   77.2187 C.3      1 UNK          0.0000
   43 H        96.2451   72.4805   77.9243 H        1 UNK          0.0000
   44 H        96.8977   73.9752   77.2369 H        1 UNK          0.0000
   45 O        94.8473   74.0194   77.6211 O.3      1 UNK          0.0000
   46 O        96.3065   71.5372   75.5325 O.3      1 UNK          0.0000
   47 H        97.1114   71.3626   76.0636 H        1 UNK          0.0000
   48 P        93.6992   73.3111   78.5037 P.3      1 UNK          0.0000
   49 O        93.1644   72.0469   77.6696 O.3      1 UNK          0.0000
   50 H        92.5594   71.5298   78.2412 H        1 UNK          0.0000
   51 O        92.5030   74.3642   78.6797 O.3      1 UNK          0.0000
   52 H        91.8573   74.0255   79.3302 H        1 UNK          0.0000
   53 O        94.2969   72.8586   79.9175 O.3      1 UNK          0.0000
   54 H        94.5445   73.6294   80.4619 H        1 UNK          0.0000
@<TRIPOS>BOND
     1     1     2   2 
     2     1     8   1 
     3     1    19   1 
     4     2     3   1 
     5     2    23   1 
     6     3     4   1 
     7     3     5   1 
     8     3     6   1 
     9     6     7   ar
    10     6    11   ar
    11     7     8   1 
    12     7    14   ar
    13     8     9   1 
    14     8    10   1 
    15    11    12   ar
    16    11    31   1 
    17    12    13   ar
    18    12    15   ar
    19    13    14   ar
    20    13    18   ar
    21    15    16   ar
    22    16    17   ar
    23    16    27   1 
    24    17    18   ar
    25    18    29   1 
    26    19    20   1 
    27    19    21   1 
    28    19    22   1 
    29    23    24   1 
    30    23    25   1 
    31    23    26   1 
    32    27    28   1 
    33    29    30   1 
    34    31    32   1 
    35    31    33   1 
    36    31    34   1 
    37    34    35   1 
    38    34    37   1 
    39    35    36   1 
    40    37    38   1 
    41    37    39   1 
    42    37    41   1 
    43    39    40   1 
    44    41    42   1 
    45    41    46   1 
    46    42    43   1 
    47    42    44   1 
    48    42    45   1 
    49    45    48   1 
    50    46    47   1 
    51    48    49   1 
    52    48    51   1 
    53    48    53   1 
    54    49    50   1 
    55    51    52   1 
    56    53    54   1 
 
