inp11.mol2
     Hgene          

 31 33  0  0  0  0               V2000
   92.4447   80.1321   77.5884 C   0  0  0  0  0
   92.6386   78.8868   78.0610 C   0  0  0  0  0
   92.7238   77.6637   77.1618 C   0  0  0  0  0
   92.7295   77.9493   75.6543 C   0  0  0  0  0
   92.5326   79.2612   75.1763 C   0  0  0  0  0
   92.2953   80.4415   76.1082 C   0  0  0  0  0
   92.9381   76.8979   74.7164 N   0  0  0  0  0
   93.0020   77.2383   73.3411 C   0  0  0  0  0
   92.7863   78.5982   72.9630 C   0  0  0  0  0
   92.5529   79.5640   73.8696 N   0  0  0  0  0
   93.2629   76.3155   72.3908 N   0  0  0  0  0
   93.3003   76.7057   71.1064 C   0  0  0  0  0
   93.1036   77.9497   70.6549 N   0  0  0  0  0
   92.8462   78.8936   71.5777 C   0  0  0  0  0
   92.2867   81.3819   78.4525 C   0  0  0  0  0
   92.8230   78.5341   79.5364 C   0  0  0  0  0
   93.5794   75.7431   70.1941 O   0  0  0  0  0
   92.6601   80.1631   71.1147 O   0  0  0  0  0
   92.9790   75.4353   75.1024 C   0  0  0  0  0
   94.3631   74.7274   74.9544 C   0  0  0  0  0
   95.4597   75.5037   74.8731 O   0  0  0  0  0
   94.5898   73.1822   74.9665 C   0  0  0  0  0
   94.7347   72.7393   73.5948 O   0  0  0  0  0
   95.8252   72.7622   75.7954 C   0  0  0  0  0
   96.0308   73.2991   77.2187 C   0  0  0  0  0
   94.8473   74.0194   77.6211 O   0  0  0  0  0
   96.3065   71.5372   75.5325 O   0  0  0  0  0
   93.6992   73.3111   78.5037 P   0  0  2  0  0
   93.1644   72.0469   77.6696 O   0  0  0  0  0
   92.5030   74.3642   78.6797 O   0  0  0  0  0
   94.2969   72.8586   79.9175 O   0  0  0  0  0
  1  2  2  0
  1  6  1  0
  1 15  1  0
  2  3  1  0
  2 16  1  0
  3  4  1  0
  4  5  4  0
  4  7  4  0
  5  6  1  0
  5 10  4  0
  7  8  4  0
  7 19  1  0
  8  9  4  0
  8 11  4  0
  9 10  4  0
  9 14  4  0
 11 12  4  0
 12 13  4  0
 12 17  1  0
 13 14  4  0
 14 18  1  0
 19 20  1  0
 20 21  1  0
 20 22  1  0
 22 23  1  0
 22 24  1  0
 24 25  1  0
 24 27  1  0
 25 26  1  0
 26 28  1  0
 28 29  1  0
 28 30  1  0
 28 31  1  0
M  END
$$$$
