@<TRIPOS>COMMENT
   inp11.mol2             10    of   10
                  SCORE =  -288.0930
               dG-SCORE =    -5.3005
      LIGAND_EFFICIENCY =    -0.9293
  NUMBER_OF_HEAVY_ATOMS =         31
                    ASA =  -276.1974
                    ELE =     0.0000
                    HYD =    -3.7559
                    VDW =    -8.1397
                   RMSD =    33.7403
 MOLECULAR_WEIGHT = 458.36
@<TRIPOS>MOLECULE
inp11.mol2                                                                      
   54   56    0    0    0
SMALL       
GASTEIGER      
 
@<TRIPOS>ATOM
    1 C        90.0419   79.4343   73.6232 C.2      1 UNK          0.0000
    2 C        91.2538   79.5212   74.2607 C.2      1 UNK          0.0000
    3 C        91.6542   80.7820   75.0607 C.3      1 UNK          0.0000
    4 H        92.0335   80.4540   76.0377 H        1 UNK          0.0000
    5 H        92.5203   81.2181   74.5425 H        1 UNK          0.0000
    6 C        90.5613   81.8371   75.2514 C.ar     1 UNK          0.0000
    7 C        89.2538   81.6837   74.6590 C.ar     1 UNK          0.0000
    8 C        88.9586   80.4946   73.7050 C.3      1 UNK          0.0000
    9 H        88.7635   80.8857   72.6989 H        1 UNK          0.0000
   10 H        88.0262   80.0193   74.0128 H        1 UNK          0.0000
   11 N        90.8050   83.0462   76.0525 N.ar     1 UNK          0.0000
   12 C        89.7065   83.9330   76.3022 C.ar     1 UNK          0.0000
   13 C        88.4243   83.6973   75.6034 C.ar     1 UNK          0.0000
   14 N        88.2314   82.5386   74.8648 N.ar     1 UNK          0.0000
   15 N        89.8173   85.0609   77.1341 N.ar     1 UNK          0.0000
   16 C        88.8015   85.9725   77.1166 C.ar     1 UNK          0.0000
   17 N        87.6781   85.9167   76.3496 N.ar     1 UNK          0.0000
   18 C        87.4399   84.7410   75.6549 C.ar     1 UNK          0.0000
   19 C        89.5505   78.3191   72.6915 C.3      1 UNK          0.0000
   20 H        89.0788   78.7605   71.8106 H        1 UNK          0.0000
   21 H        90.3426   77.6837   72.2924 H        1 UNK          0.0000
   22 H        88.7860   77.7062   73.1871 H        1 UNK          0.0000
   23 C        92.3904   78.5122   74.3084 C.3      1 UNK          0.0000
   24 H        92.7494   78.3657   75.3380 H        1 UNK          0.0000
   25 H        92.1173   77.5199   73.9515 H        1 UNK          0.0000
   26 H        93.2492   78.8479   73.7146 H        1 UNK          0.0000
   27 O        88.9031   87.0359   77.9313 O.3      1 UNK          0.0000
   28 H        88.0585   87.5225   77.8881 H        1 UNK          0.0000
   29 O        86.2435   84.7084   75.0079 O.3      1 UNK          0.0000
   30 H        86.2377   83.9721   74.3671 H        1 UNK          0.0000
   31 C        92.1892   83.3428   76.5800 C.3      1 UNK          0.0000
   32 H        92.9337   82.7811   76.0069 H        1 UNK          0.0000
   33 H        92.4097   84.4091   76.3969 H        1 UNK          0.0000
   34 C        92.3853   83.0008   78.0732 C.3      1 UNK          0.0000
   35 O        91.5758   82.0326   78.5389 O.3      1 UNK          0.0000
   36 H        90.6566   82.3728   78.5798 H        1 UNK          0.0000
   37 C        93.4564   83.6566   78.9991 C.3      1 UNK          0.0000
   38 H        94.3812   83.8883   78.4407 H        1 UNK          0.0000
   39 O        92.9088   84.9171   79.4553 O.3      1 UNK          0.0000
   40 H        93.4956   85.3885   80.0795 H        1 UNK          0.0000
   41 C        93.9398   82.6942   80.1203 C.3      1 UNK          0.0000
   42 C        94.2898   81.2100   79.9069 C.3      1 UNK          0.0000
   43 H        95.2223   80.9371   80.4263 H        1 UNK          0.0000
   44 H        93.4866   80.5897   80.3197 H        1 UNK          0.0000
   45 O        94.3966   80.9017   78.5121 O.3      1 UNK          0.0000
   46 O        94.0841   83.1545   81.3535 O.3      1 UNK          0.0000
   47 H        94.6591   82.5365   81.8535 H        1 UNK          0.0000
   48 P        95.7460   81.1532   77.6750 P.3      1 UNK          0.0000
   49 O        96.3164   82.6279   77.9806 O.3      1 UNK          0.0000
   50 H        97.1051   82.7828   77.4195 H        1 UNK          0.0000
   51 O        95.3032   81.0551   76.1340 O.3      1 UNK          0.0000
   52 H        96.0751   81.1582   75.5457 H        1 UNK          0.0000
   53 O        96.7991   80.0254   78.0884 O.3      1 UNK          0.0000
   54 H        96.4211   79.1416   77.9217 H        1 UNK          0.0000
@<TRIPOS>BOND
     1     1     2   2 
     2     1     8   1 
     3     1    19   1 
     4     2     3   1 
     5     2    23   1 
     6     3     4   1 
     7     3     5   1 
     8     3     6   1 
     9     6     7   ar
    10     6    11   ar
    11     7     8   1 
    12     7    14   ar
    13     8     9   1 
    14     8    10   1 
    15    11    12   ar
    16    11    31   1 
    17    12    13   ar
    18    12    15   ar
    19    13    14   ar
    20    13    18   ar
    21    15    16   ar
    22    16    17   ar
    23    16    27   1 
    24    17    18   ar
    25    18    29   1 
    26    19    20   1 
    27    19    21   1 
    28    19    22   1 
    29    23    24   1 
    30    23    25   1 
    31    23    26   1 
    32    27    28   1 
    33    29    30   1 
    34    31    32   1 
    35    31    33   1 
    36    31    34   1 
    37    34    35   1 
    38    34    37   1 
    39    35    36   1 
    40    37    38   1 
    41    37    39   1 
    42    37    41   1 
    43    39    40   1 
    44    41    42   1 
    45    41    46   1 
    46    42    43   1 
    47    42    44   1 
    48    42    45   1 
    49    45    48   1 
    50    46    47   1 
    51    48    49   1 
    52    48    51   1 
    53    48    53   1 
    54    49    50   1 
    55    51    52   1 
    56    53    54   1 
 
