inp11.mol2
     Hgene          

 31 33  0  0  0  0               V2000
   90.0419   79.4343   73.6232 C   0  0  0  0  0
   91.2538   79.5212   74.2607 C   0  0  0  0  0
   91.6542   80.7820   75.0607 C   0  0  0  0  0
   90.5613   81.8371   75.2514 C   0  0  0  0  0
   89.2538   81.6837   74.6590 C   0  0  0  0  0
   88.9586   80.4946   73.7050 C   0  0  0  0  0
   90.8050   83.0462   76.0525 N   0  0  0  0  0
   89.7065   83.9330   76.3022 C   0  0  0  0  0
   88.4243   83.6973   75.6034 C   0  0  0  0  0
   88.2314   82.5386   74.8648 N   0  0  0  0  0
   89.8173   85.0609   77.1341 N   0  0  0  0  0
   88.8015   85.9725   77.1166 C   0  0  0  0  0
   87.6781   85.9167   76.3496 N   0  0  0  0  0
   87.4399   84.7410   75.6549 C   0  0  0  0  0
   89.5505   78.3191   72.6915 C   0  0  0  0  0
   92.3904   78.5122   74.3084 C   0  0  0  0  0
   88.9031   87.0359   77.9313 O   0  0  0  0  0
   86.2435   84.7084   75.0079 O   0  0  0  0  0
   92.1892   83.3428   76.5800 C   0  0  0  0  0
   92.3853   83.0008   78.0732 C   0  0  0  0  0
   91.5758   82.0326   78.5389 O   0  0  0  0  0
   93.4564   83.6566   78.9991 C   0  0  0  0  0
   92.9088   84.9171   79.4553 O   0  0  0  0  0
   93.9398   82.6942   80.1203 C   0  0  0  0  0
   94.2898   81.2100   79.9069 C   0  0  0  0  0
   94.3966   80.9017   78.5121 O   0  0  0  0  0
   94.0841   83.1545   81.3535 O   0  0  0  0  0
   95.7460   81.1532   77.6750 P   0  0  2  0  0
   96.3164   82.6279   77.9806 O   0  0  0  0  0
   95.3032   81.0551   76.1340 O   0  0  0  0  0
   96.7991   80.0254   78.0884 O   0  0  0  0  0
  1  2  2  0
  1  6  1  0
  1 15  1  0
  2  3  1  0
  2 16  1  0
  3  4  1  0
  4  5  4  0
  4  7  4  0
  5  6  1  0
  5 10  4  0
  7  8  4  0
  7 19  1  0
  8  9  4  0
  8 11  4  0
  9 10  4  0
  9 14  4  0
 11 12  4  0
 12 13  4  0
 12 17  1  0
 13 14  4  0
 14 18  1  0
 19 20  1  0
 20 21  1  0
 20 22  1  0
 22 23  1  0
 22 24  1  0
 24 25  1  0
 24 27  1  0
 25 26  1  0
 26 28  1  0
 28 29  1  0
 28 30  1  0
 28 31  1  0
M  END
$$$$
