@<TRIPOS>MOLECULE
inp11.mol2
 55 57 0 0 0
SMALL
GASTEIGER

@<TRIPOS>ATOM
     1 P1          80.7870    50.9700    92.4650 P.3       1  UNK         0.0000
     2 O1          82.7720    55.9360    88.1710 O.3       1  UNK         0.0000
     3 H12         82.1200    55.8330    88.8930 H         1  UNK         0.0000
     4 O2          83.3210    52.3010    87.8200 O.3       1  UNK         0.0000
     5 H13         82.6340    51.6620    88.0920 H         1  UNK         0.0000
     6 O3          80.6880    53.2210    88.8110 O.3       1  UNK         0.0000
     7 H14         80.0500    52.8000    89.4200 H         1  UNK         0.0000
     8 O4          80.9860    52.1910    91.4320 O.3       1  UNK         0.0000
     9 O5          84.2350    60.7080    86.2660 O.2       1  UNK         0.0000
    10 O6          87.7140    58.1200    87.4380 O.2       1  UNK         0.0000
    11 O7          79.4850    51.2540    93.3580 O.3       1  UNK         0.0000
    12 H22         78.7020    51.3020    92.7830 H         1  UNK         0.0000
    13 O8          80.5870    49.6080    91.6380 O.3       1  UNK         0.0000
    14 H23         80.4760    48.8710    92.2640 H         1  UNK         0.0000
    15 O9          82.0760    50.8650    93.4170 O.3       1  UNK         0.0000
    16 H24         82.1180    51.6530    93.9860 H         1  UNK         0.0000
    17 N1          83.9820    55.9630    85.6180 N.pl3     1  UNK         0.0000
    18 N2          82.7720    58.4900    85.2770 N.pl3     1  UNK         0.0000
    19 H6          82.2590    59.3680    85.3120 H         1  UNK         0.0000
    20 N3          85.9510    57.0740    86.5410 N.am      1  UNK         0.0000
    21 H11         86.4450    56.1950    86.6220 H         1  UNK         0.0000
    22 N4          86.0080    59.4680    86.8840 N.am      1  UNK         0.0000
    23 H15         86.5130    60.2830    87.2080 H         1  UNK         0.0000
    24 C1          82.8890    54.6670    87.5150 C.3       1  UNK         0.0000
    25 H1          81.9590    54.4580    86.9700 H         1  UNK         0.0000
    26 C2          84.0420    54.7360    86.4740 C.3       1  UNK         0.0000
    27 H2          84.0180    53.8350    85.8450 H         1  UNK         0.0000
    28 H3          84.9980    54.7020    87.0130 H         1  UNK         0.0000
    29 C3          83.1060    53.5140    88.5430 C.3       1  UNK         0.0000
    30 H4          84.0030    53.7390    89.1350 H         1  UNK         0.0000
    31 C4          82.9630    56.1350    84.6530 C.ar      1  UNK         0.0000
    32 C5          84.6720    57.1280    86.0070 C.2       1  UNK         0.0000
    33 C6          81.9110    53.3640    89.5350 C.3       1  UNK         0.0000
    34 H5          81.8590    54.2720    90.1480 H         1  UNK         0.0000
    35 C7          82.3370    57.4020    84.5110 C.ar      1  UNK         0.0000
    36 C8          84.0310    58.3820    85.8800 C.2       1  UNK         0.0000
    37 C9          82.5560    55.0660    83.8300 C.ar      1  UNK         0.0000
    38 H7          83.0360    54.0940    83.9040 H         1  UNK         0.0000
    39 C10         82.0890    52.1760    90.5140 C.3       1  UNK         0.0000
    40 H8          83.0350    52.2760    91.0630 H         1  UNK         0.0000
    41 H9          82.1060    51.2280    89.9610 H         1  UNK         0.0000
    42 C11         81.3070    57.5810    83.5730 C.ar      1  UNK         0.0000
    43 H10         80.8300    58.5530    83.4610 H         1  UNK         0.0000
    44 C12         81.5240    55.2470    82.8880 C.ar      1  UNK         0.0000
    45 C13         80.8940    56.5080    82.7610 C.ar      1  UNK         0.0000
    46 C14         84.7430    59.6080    86.3490 C.2       1  UNK         0.0000
    47 C15         86.6000    58.2210    86.9730 C.2       1  UNK         0.0000
    48 C16         81.1040    54.0690    82.0070 C.3       1  UNK         0.0000
    49 H16         80.0320    53.8590    82.1090 H         1  UNK         0.0000
    50 H17         81.6410    53.1480    82.2690 H         1  UNK         0.0000
    51 H18         81.3080    54.2760    80.9490 H         1  UNK         0.0000
    52 C17         79.7740    56.7310    81.7450 C.3       1  UNK         0.0000
    53 H19         79.4240    57.7710    81.7420 H         1  UNK         0.0000
    54 H20         80.1100    56.4990    80.7260 H         1  UNK         0.0000
    55 H21         78.9070    56.0960    81.9670 H         1  UNK         0.0000
@<TRIPOS>BOND
     1     1     8   1
     2     1    11   1
     3     1    13   1
     4     1    15   1
     5     2     3   1
     6     2    24   1
     7     4     5   1
     8     4    29   1
     9     6     7   1
    10     6    33   1
    11     8    39   1
    12     9    46   2
    13    10    47   2
    14    11    12   1
    15    13    14   1
    16    15    16   1
    17    17    26   1
    18    17    31   1
    19    17    32   1
    20    18    19   1
    21    18    35   1
    22    18    36   1
    23    20    21   1
    24    20    32   1
    25    20    47  am
    26    22    23   1
    27    22    46  am
    28    22    47  am
    29    24    25   1
    30    24    26   1
    31    24    29   1
    32    26    27   1
    33    26    28   1
    34    29    30   1
    35    29    33   1
    36    31    35  ar
    37    31    37  ar
    38    32    36   2
    39    33    34   1
    40    33    39   1
    41    35    42  ar
    42    36    46   1
    43    37    38   1
    44    37    44  ar
    45    39    40   1
    46    39    41   1
    47    42    43   1
    48    42    45  ar
    49    44    45  ar
    50    44    48   1
    51    45    52   1
    52    48    49   1
    53    48    50   1
    54    48    51   1
    55    52    53   1
    56    52    54   1
    57    52    55   1

