#  inp11.mol2              1    of   10
#                 SCORE =  -311.6051
#              dG-SCORE =    -7.3347
#     LIGAND_EFFICIENCY =    -1.0052
# NUMBER_OF_HEAVY_ATOMS =         31
#                   ASA =  -244.6750
#                   ELE =     0.0000
#                   HYD =   -66.9301
#                   VDW =     0.0000
#                  RMSD =    28.7838
@<TRIPOS>MOLECULE
inp11.mol2                                                                      
   55   57    0    0    0
SMALL       
GASTEIGER      
 
@<TRIPOS>ATOM
    1 P        88.4319   81.4630   71.0706 P.3      1 UNK          0.0000
    2 O        93.4547   79.8019   75.4354 O.3      1 UNK          0.0000
    3 H        93.3807   80.0585   74.4943 H        1 UNK          0.0000
    4 O        89.8462   79.0960   75.7787 O.3      1 UNK          0.0000
    5 H        89.3066   78.8550   75.0008 H        1 UNK          0.0000
    6 O        91.0800   78.7679   73.1083 O.3      1 UNK          0.0000
    7 H        90.7058   78.8763   72.2120 H        1 UNK          0.0000
    8 O        89.7136   80.9271   71.8876 O.3      1 UNK          0.0000
    9 O        98.0965   79.8475   78.0800 O.2      1 UNK          0.0000
   10 O        94.8321   82.1069   80.1809 O.2      1 UNK          0.0000
   11 O        88.8275   81.6070   69.5227 O.3      1 UNK          0.0000
   12 H        89.0759   80.7355   69.1694 H        1 UNK          0.0000
   13 O        87.2309   80.4080   71.2242 O.3      1 UNK          0.0000
   14 H        86.4554   80.7382   70.7375 H        1 UNK          0.0000
   15 O        87.9969   82.8973   71.6472 O.3      1 UNK          0.0000
   16 H        88.6937   83.5463   71.4482 H        1 UNK          0.0000
   17 N        93.5741   78.2746   77.8094 N.pl3    1 UNK          0.0000
   18 N        96.2931   77.8533   77.1804 N.pl3    1 UNK          0.0000
   19 H        97.2356   77.7890   76.8025 H        1 UNK          0.0000
   20 N        94.2158   80.2601   79.0780 N.am     1 UNK          0.0000
   21 H        93.2619   80.4121   79.3785 H        1 UNK          0.0000
   22 N        96.5076   81.0313   79.1464 N.am     1 UNK          0.0000
   23 H        97.1805   81.7144   79.4702 H        1 UNK          0.0000
   24 C        92.2704   79.0691   75.7742 C.3      1 UNK          0.0000
   25 H        92.2890   78.0996   75.2592 H        1 UNK          0.0000
   26 C        92.2630   78.7920   77.3042 C.3      1 UNK          0.0000
   27 H        91.4596   78.0802   77.5407 H        1 UNK          0.0000
   28 H        92.0029   79.7236   77.8239 H        1 UNK          0.0000
   29 C        90.9846   79.8248   75.3170 C.3      1 UNK          0.0000
   30 H        90.9818   80.8201   75.7805 H        1 UNK          0.0000
   31 C        94.0300   76.9791   77.4734 C.ar     1 UNK          0.0000
   32 C        94.5500   79.1726   78.2846 C.2      1 UNK          0.0000
   33 C        90.9257   80.0240   73.7705 C.3      1 UNK          0.0000
   34 H        91.7509   80.6852   73.4790 H        1 UNK          0.0000
   35 C        95.3931   76.7824   77.1264 C.ar     1 UNK          0.0000
   36 C        95.9013   78.9785   77.9159 C.2      1 UNK          0.0000
   37 C        93.1505   75.8781   77.4747 C.ar     1 UNK          0.0000
   38 H        92.1089   75.9995   77.7592 H        1 UNK          0.0000
   39 C        89.6181   80.7120   73.3033 C.3      1 UNK          0.0000
   40 H        89.4897   81.6724   73.8205 H        1 UNK          0.0000
   41 H        88.7528   80.0760   73.5302 H        1 UNK          0.0000
   42 C        95.8546   75.5053   76.7674 C.ar     1 UNK          0.0000
   43 H        96.9002   75.3535   76.5055 H        1 UNK          0.0000
   44 C        93.6147   74.5970   77.1163 C.ar     1 UNK          0.0000
   45 C        94.9709   74.4097   76.7575 C.ar     1 UNK          0.0000
   46 C        96.9238   79.9664   78.3725 C.2      1 UNK          0.0000
   47 C        95.1761   81.1700   79.4944 C.2      1 UNK          0.0000
   48 C        92.6376   73.4199   77.1282 C.3      1 UNK          0.0000
   49 H        92.6036   72.9220   76.1512 H        1 UNK          0.0000
   50 H        91.6141   73.7379   77.3657 H        1 UNK          0.0000
   51 H        92.9295   72.6732   77.8773 H        1 UNK          0.0000
   52 C        95.5000   73.0297   76.3674 C.3      1 UNK          0.0000
   53 H        96.5775   73.0469   76.1610 H        1 UNK          0.0000
   54 H        95.3352   72.2996   77.1704 H        1 UNK          0.0000
   55 H        95.0010   72.6561   75.4643 H        1 UNK          0.0000
@<TRIPOS>BOND
     1     1     8   1 
     2     1    11   1 
     3     1    13   1 
     4     1    15   1 
     5     2     3   1 
     6     2    24   1 
     7     4     5   1 
     8     4    29   1 
     9     6     7   1 
    10     6    33   1 
    11     8    39   1 
    12     9    46   2 
    13    10    47   2 
    14    11    12   1 
    15    13    14   1 
    16    15    16   1 
    17    17    26   1 
    18    17    31   1 
    19    17    32   1 
    20    18    19   1 
    21    18    35   1 
    22    18    36   1 
    23    20    21   1 
    24    20    32   1 
    25    20    47   am
    26    22    23   1 
    27    22    46   am
    28    22    47   am
    29    24    25   1 
    30    24    26   1 
    31    24    29   1 
    32    26    27   1 
    33    26    28   1 
    34    29    30   1 
    35    29    33   1 
    36    31    35   ar
    37    31    37   ar
    38    32    36   2 
    39    33    34   1 
    40    33    39   1 
    41    35    42   ar
    42    36    46   1 
    43    37    38   1 
    44    37    44   ar
    45    39    40   1 
    46    39    41   1 
    47    42    43   1 
    48    42    45   ar
    49    44    45   ar
    50    44    48   1 
    51    45    52   1 
    52    48    49   1 
    53    48    50   1 
    54    48    51   1 
    55    52    53   1 
    56    52    54   1 
    57    52    55   1 
#MOLECULE END
 
#  inp11.mol2              2    of   10
#                 SCORE =  -301.0425
#              dG-SCORE =    -6.3956
#     LIGAND_EFFICIENCY =    -0.9711
# NUMBER_OF_HEAVY_ATOMS =         31
#                   ASA =  -259.8304
#                   ELE =     0.0000
#                   HYD =   -34.3291
#                   VDW =    -6.8831
#                  RMSD =    29.0767
@<TRIPOS>MOLECULE
inp11.mol2                                                                      
   55   57    0    0    0
SMALL       
GASTEIGER      
 
@<TRIPOS>ATOM
    1 P        94.3325   73.4687   76.2853 P.3      1 UNK          0.0000
    2 O        92.0721   79.9059   76.4437 O.3      1 UNK          0.0000
    3 H        92.4512   79.2218   75.8561 H        1 UNK          0.0000
    4 O        92.4631   77.6263   79.3477 O.3      1 UNK          0.0000
    5 H        93.4105   77.4236   79.3497 H        1 UNK          0.0000
    6 O        94.4443   77.6618   77.1685 O.3      1 UNK          0.0000
    7 H        94.9911   77.1339   76.5550 H        1 UNK          0.0000
    8 O        93.9876   75.0440   76.2383 O.3      1 UNK          0.0000
    9 O        89.1935   84.7522   74.9818 O.2      1 UNK          0.0000
   10 O        86.6997   81.7799   77.1003 O.2      1 UNK          0.0000
   11 O        95.2463   73.0568   75.0293 O.3      1 UNK          0.0000
   12 H        96.0367   73.6198   74.9978 H        1 UNK          0.0000
   13 O        95.0864   73.0976   77.6567 O.3      1 UNK          0.0000
   14 H        95.2771   72.1455   77.6676 H        1 UNK          0.0000
   15 O        92.9476   72.6977   76.1408 O.3      1 UNK          0.0000
   16 H        92.6165   72.8737   75.2461 H        1 UNK          0.0000
   17 N        91.2864   81.8416   78.3551 N.pl3    1 UNK          0.0000
   18 N        91.5132   84.1705   76.6300 N.pl3    1 UNK          0.0000
   19 H        91.6580   84.8764   75.9246 H        1 UNK          0.0000
   20 N        88.8238   81.9461   77.8746 N.am     1 UNK          0.0000
   21 H        88.5958   81.3291   78.6298 H        1 UNK          0.0000
   22 N        87.9093   83.2758   76.0227 N.am     1 UNK          0.0000
   23 H        87.1050   83.5397   75.4651 H        1 UNK          0.0000
   24 C        92.3213   79.5265   77.8146 C.3      1 UNK          0.0000
   25 H        93.3738   79.7530   78.0109 H        1 UNK          0.0000
   26 C        91.4935   80.4193   78.8136 C.3      1 UNK          0.0000
   27 H        92.0521   80.4207   79.7716 H        1 UNK          0.0000
   28 H        90.5418   79.9293   79.0211 H        1 UNK          0.0000
   29 C        92.1664   77.9662   78.0033 C.3      1 UNK          0.0000
   30 H        91.1448   77.6347   77.8009 H        1 UNK          0.0000
   31 C        92.3504   82.7295   78.4883 C.ar     1 UNK          0.0000
   32 C        90.1069   82.3923   77.6629 C.2      1 UNK          0.0000
   33 C        93.1057   77.1780   77.0298 C.3      1 UNK          0.0000
   34 H        92.7635   77.3734   76.0062 H        1 UNK          0.0000
   35 C        92.5107   83.8822   77.6241 C.ar     1 UNK          0.0000
   36 C        90.3026   83.4794   76.7218 C.2      1 UNK          0.0000
   37 C        93.2836   82.5090   79.5465 C.ar     1 UNK          0.0000
   38 H        93.1580   81.6726   80.2198 H        1 UNK          0.0000
   39 C        93.1085   75.6370   77.2155 C.3      1 UNK          0.0000
   40 H        92.1030   75.2303   77.1211 H        1 UNK          0.0000
   41 H        93.4577   75.3930   78.2141 H        1 UNK          0.0000
   42 C        93.6126   84.7372   77.7568 C.ar     1 UNK          0.0000
   43 H        93.7598   85.5662   77.0746 H        1 UNK          0.0000
   44 C        94.3306   83.4071   79.7182 C.ar     1 UNK          0.0000
   45 C        94.5593   84.5157   78.8158 C.ar     1 UNK          0.0000
   46 C        89.1175   83.9001   75.8286 C.2      1 UNK          0.0000
   47 C        87.7642   82.3140   76.9966 C.2      1 UNK          0.0000
   48 C        95.1552   83.0660   80.9259 C.3      1 UNK          0.0000
   49 H        96.1749   82.8329   80.6227 H        1 UNK          0.0000
   50 H        94.7761   82.2062   81.4719 H        1 UNK          0.0000
   51 H        95.1592   83.9079   81.6172 H        1 UNK          0.0000
   52 C        95.7381   85.4766   78.8450 C.3      1 UNK          0.0000
   53 H        95.7199   86.1497   77.9823 H        1 UNK          0.0000
   54 H        95.7332   86.1232   79.7228 H        1 UNK          0.0000
   55 H        96.6924   84.9372   78.8263 H        1 UNK          0.0000
@<TRIPOS>BOND
     1     1     8   1 
     2     1    11   1 
     3     1    13   1 
     4     1    15   1 
     5     2     3   1 
     6     2    24   1 
     7     4     5   1 
     8     4    29   1 
     9     6     7   1 
    10     6    33   1 
    11     8    39   1 
    12     9    46   2 
    13    10    47   2 
    14    11    12   1 
    15    13    14   1 
    16    15    16   1 
    17    17    26   1 
    18    17    31   1 
    19    17    32   1 
    20    18    19   1 
    21    18    35   1 
    22    18    36   1 
    23    20    21   1 
    24    20    32   1 
    25    20    47   am
    26    22    23   1 
    27    22    46   am
    28    22    47   am
    29    24    25   1 
    30    24    26   1 
    31    24    29   1 
    32    26    27   1 
    33    26    28   1 
    34    29    30   1 
    35    29    33   1 
    36    31    35   ar
    37    31    37   ar
    38    32    36   2 
    39    33    34   1 
    40    33    39   1 
    41    35    42   ar
    42    36    46   1 
    43    37    38   1 
    44    37    44   ar
    45    39    40   1 
    46    39    41   1 
    47    42    43   1 
    48    42    45   ar
    49    44    45   ar
    50    44    48   1 
    51    45    52   1 
    52    48    49   1 
    53    48    50   1 
    54    48    51   1 
    55    52    53   1 
    56    52    54   1 
    57    52    55   1 
#MOLECULE END
 
#  inp11.mol2              3    of   10
#                 SCORE =  -306.8931
#              dG-SCORE =    -7.7201
#     LIGAND_EFFICIENCY =    -0.9900
# NUMBER_OF_HEAVY_ATOMS =         31
#                   ASA =  -205.8967
#                   ELE =     0.0000
#                   HYD =  -100.9964
#                   VDW =     0.0000
#                  RMSD =    28.8154
@<TRIPOS>MOLECULE
inp11.mol2                                                                      
   55   57    0    0    0
SMALL       
GASTEIGER      
 
@<TRIPOS>ATOM
    1 P        97.1070   79.1796   68.8337 P.3      1 UNK          0.0000
    2 O        94.6245   76.3541   74.5690 O.3      1 UNK          0.0000
    3 H        94.2690   76.6605   73.7107 H        1 UNK          0.0000
    4 O        97.8535   78.0909   74.1277 O.3      1 UNK          0.0000
    5 H        97.9254   78.8760   73.5509 H        1 UNK          0.0000
    6 O        95.4669   79.2328   72.8006 O.3      1 UNK          0.0000
    7 H        95.3776   79.7447   71.9729 H        1 UNK          0.0000
    8 O        96.3192   78.6959   70.1539 O.3      1 UNK          0.0000
    9 O        91.8463   73.2229   77.8884 O.2      1 UNK          0.0000
   10 O        95.9490   71.6416   76.9709 O.2      1 UNK          0.0000
   11 O        96.0398   79.7034   67.7566 O.3      1 UNK          0.0000
   12 H        95.5563   80.4637   68.1229 H        1 UNK          0.0000
   13 O        98.1078   80.3729   69.2254 O.3      1 UNK          0.0000
   14 H        98.5887   80.6571   68.4284 H        1 UNK          0.0000
   15 O        97.9232   77.9407   68.2191 O.3      1 UNK          0.0000
   16 H        97.2943   77.2755   67.8900 H        1 UNK          0.0000
   17 N        95.4808   76.2881   77.2607 N.pl3    1 UNK          0.0000
   18 N        92.7634   75.9054   77.9206 N.pl3    1 UNK          0.0000
   19 H        91.7544   75.7906   77.9838 H        1 UNK          0.0000
   20 N        95.7512   73.8643   77.1361 N.am     1 UNK          0.0000
   21 H        96.7431   73.9548   76.9592 H        1 UNK          0.0000
   22 N        93.8736   72.3659   77.4209 N.am     1 UNK          0.0000
   23 H        93.5189   71.4182   77.4384 H        1 UNK          0.0000
   24 C        95.7356   77.1975   74.8983 C.3      1 UNK          0.0000
   25 H        95.3641   78.2026   75.1379 H        1 UNK          0.0000
   26 C        96.4408   76.6391   76.1667 C.3      1 UNK          0.0000
   27 H        97.1734   77.3743   76.5284 H        1 UNK          0.0000
   28 H        97.0207   75.7523   75.8787 H        1 UNK          0.0000
   29 C        96.7234   77.3302   73.6983 C.3      1 UNK          0.0000
   30 H        97.0595   76.3252   73.4107 H        1 UNK          0.0000
   31 C        94.7768   77.2896   77.9681 C.ar     1 UNK          0.0000
   32 C        94.9584   74.9826   77.3478 C.2      1 UNK          0.0000
   33 C        96.0593   77.9823   72.4460 C.3      1 UNK          0.0000
   34 H        95.2757   77.3061   72.0830 H        1 UNK          0.0000
   35 C        93.4009   77.1026   78.2672 C.ar     1 UNK          0.0000
   36 C        93.5829   74.8091   77.6260 C.2      1 UNK          0.0000
   37 C        95.4195   78.4742   78.3797 C.ar     1 UNK          0.0000
   38 H        96.4768   78.6297   78.1830 H        1 UNK          0.0000
   39 C        97.0536   78.1806   71.2741 C.3      1 UNK          0.0000
   40 H        97.5209   77.2231   71.0075 H        1 UNK          0.0000
   41 H        97.8442   78.8853   71.5625 H        1 UNK          0.0000
   42 C        92.6832   78.0993   78.9484 C.ar     1 UNK          0.0000
   43 H        91.6299   77.9544   79.1815 H        1 UNK          0.0000
   44 C        94.6992   79.4727   79.0646 C.ar     1 UNK          0.0000
   45 C        93.3248   79.2870   79.3472 C.ar     1 UNK          0.0000
   46 C        93.0213   73.4258   77.6582 C.2      1 UNK          0.0000
   47 C        95.2158   72.5854   77.1686 C.2      1 UNK          0.0000
   48 C        95.4234   80.7478   79.5005 C.3      1 UNK          0.0000
   49 H        94.9306   81.6418   79.0984 H        1 UNK          0.0000
   50 H        96.4647   80.7680   79.1534 H        1 UNK          0.0000
   51 H        95.4421   80.8360   80.5940 H        1 UNK          0.0000
   52 C        92.5218   80.3537   80.0912 C.3      1 UNK          0.0000
   53 H        91.4860   80.0378   80.2689 H        1 UNK          0.0000
   54 H        92.9660   80.5743   81.0705 H        1 UNK          0.0000
   55 H        92.4835   81.2897   79.5197 H        1 UNK          0.0000
@<TRIPOS>BOND
     1     1     8   1 
     2     1    11   1 
     3     1    13   1 
     4     1    15   1 
     5     2     3   1 
     6     2    24   1 
     7     4     5   1 
     8     4    29   1 
     9     6     7   1 
    10     6    33   1 
    11     8    39   1 
    12     9    46   2 
    13    10    47   2 
    14    11    12   1 
    15    13    14   1 
    16    15    16   1 
    17    17    26   1 
    18    17    31   1 
    19    17    32   1 
    20    18    19   1 
    21    18    35   1 
    22    18    36   1 
    23    20    21   1 
    24    20    32   1 
    25    20    47   am
    26    22    23   1 
    27    22    46   am
    28    22    47   am
    29    24    25   1 
    30    24    26   1 
    31    24    29   1 
    32    26    27   1 
    33    26    28   1 
    34    29    30   1 
    35    29    33   1 
    36    31    35   ar
    37    31    37   ar
    38    32    36   2 
    39    33    34   1 
    40    33    39   1 
    41    35    42   ar
    42    36    46   1 
    43    37    38   1 
    44    37    44   ar
    45    39    40   1 
    46    39    41   1 
    47    42    43   1 
    48    42    45   ar
    49    44    45   ar
    50    44    48   1 
    51    45    52   1 
    52    48    49   1 
    53    48    50   1 
    54    48    51   1 
    55    52    53   1 
    56    52    54   1 
    57    52    55   1 
#MOLECULE END
 
#  inp11.mol2              4    of   10
#                 SCORE =  -276.6161
#              dG-SCORE =    -6.9777
#     LIGAND_EFFICIENCY =    -0.8923
# NUMBER_OF_HEAVY_ATOMS =         31
#                   ASA =  -172.6647
#                   ELE =     0.0000
#                   HYD =  -103.9514
#                   VDW =     0.0000
#                  RMSD =    28.5029
@<TRIPOS>MOLECULE
inp11.mol2                                                                      
   55   57    0    0    0
SMALL       
GASTEIGER      
 
@<TRIPOS>ATOM
    1 P        90.6039   80.5945   69.1979 P.3      1 UNK          0.0000
    2 O        92.2296   76.9069   74.7475 O.3      1 UNK          0.0000
    3 H        91.4258   77.3211   74.3742 H        1 UNK          0.0000
    4 O        94.5180   78.7878   72.5422 O.3      1 UNK          0.0000
    5 H        94.2540   79.6488   72.1637 H        1 UNK          0.0000
    6 O        91.9256   80.0324   73.2434 O.3      1 UNK          0.0000
    7 H        91.3581   80.6539   72.7464 H        1 UNK          0.0000
    8 O        90.8253   79.9039   70.6372 O.3      1 UNK          0.0000
    9 O        92.0476   73.2513   78.6391 O.2      1 UNK          0.0000
   10 O        94.4626   71.9440   75.0847 O.2      1 UNK          0.0000
   11 O        89.1330   81.2329   69.1505 O.3      1 UNK          0.0000
   12 H        89.0550   81.9181   69.8364 H        1 UNK          0.0000
   13 O        91.7001   81.7503   68.9944 O.3      1 UNK          0.0000
   14 H        91.5700   82.1598   68.1210 H        1 UNK          0.0000
   15 O        90.7412   79.4815   68.0485 O.3      1 UNK          0.0000
   16 H        90.0045   78.8506   68.1251 H        1 UNK          0.0000
   17 N        94.6155   76.4853   76.2008 N.pl3    1 UNK          0.0000
   18 N        92.9508   75.9290   78.4111 N.pl3    1 UNK          0.0000
   19 H        92.2170   75.7752   79.0989 H        1 UNK          0.0000
   20 N        94.5728   74.1134   75.6215 N.am     1 UNK          0.0000
   21 H        95.2184   74.2588   74.8564 H        1 UNK          0.0000
   22 N        93.2266   72.5324   76.8625 N.am     1 UNK          0.0000
   23 H        92.9028   71.5814   76.9846 H        1 UNK          0.0000
   24 C        93.3450   77.7289   74.3809 C.3      1 UNK          0.0000
   25 H        93.2871   78.6777   74.9304 H        1 UNK          0.0000
   26 C        94.6621   77.0179   74.8022 C.3      1 UNK          0.0000
   27 H        95.5035   77.7164   74.6918 H        1 UNK          0.0000
   28 H        94.8552   76.1994   74.0962 H        1 UNK          0.0000
   29 C        93.3290   78.0613   72.8569 C.3      1 UNK          0.0000
   30 H        93.3290   77.1183   72.2944 H        1 UNK          0.0000
   31 C        94.6072   77.3539   77.3165 C.ar     1 UNK          0.0000
   32 C        94.1846   75.1652   76.4381 C.2      1 UNK          0.0000
   33 C        92.0600   78.8640   72.4328 C.3      1 UNK          0.0000
   34 H        91.1832   78.2224   72.5829 H        1 UNK          0.0000
   35 C        93.7421   77.0838   78.4101 C.ar     1 UNK          0.0000
   36 C        93.3072   74.9115   77.5177 C.2      1 UNK          0.0000
   37 C        95.4435   78.4872   77.3593 C.ar     1 UNK          0.0000
   38 H        96.1304   78.7017   76.5452 H        1 UNK          0.0000
   39 C        92.0718   79.2576   70.9340 C.3      1 UNK          0.0000
   40 H        92.1882   78.3625   70.3082 H        1 UNK          0.0000
   41 H        92.9077   79.9382   70.7270 H        1 UNK          0.0000
   42 C        93.7060   77.9509   79.5145 C.ar     1 UNK          0.0000
   43 H        93.0463   77.7419   80.3546 H        1 UNK          0.0000
   44 C        95.4080   79.3555   78.4683 C.ar     1 UNK          0.0000
   45 C        94.5335   79.0891   79.5488 C.ar     1 UNK          0.0000
   46 C        92.8057   73.5210   77.7295 C.2      1 UNK          0.0000
   47 C        94.0985   72.8270   75.8298 C.2      1 UNK          0.0000
   48 C        96.3282   80.5774   78.4880 C.3      1 UNK          0.0000
   49 H        95.7557   81.5038   78.6210 H        1 UNK          0.0000
   50 H        96.8965   80.6789   77.5542 H        1 UNK          0.0000
   51 H        97.0554   80.5097   79.3069 H        1 UNK          0.0000
   52 C        94.4780   80.0138   80.7646 C.3      1 UNK          0.0000
   53 H        93.7840   79.6440   81.5299 H        1 UNK          0.0000
   54 H        95.4638   80.1066   81.2385 H        1 UNK          0.0000
   55 H        94.1442   81.0199   80.4808 H        1 UNK          0.0000
@<TRIPOS>BOND
     1     1     8   1 
     2     1    11   1 
     3     1    13   1 
     4     1    15   1 
     5     2     3   1 
     6     2    24   1 
     7     4     5   1 
     8     4    29   1 
     9     6     7   1 
    10     6    33   1 
    11     8    39   1 
    12     9    46   2 
    13    10    47   2 
    14    11    12   1 
    15    13    14   1 
    16    15    16   1 
    17    17    26   1 
    18    17    31   1 
    19    17    32   1 
    20    18    19   1 
    21    18    35   1 
    22    18    36   1 
    23    20    21   1 
    24    20    32   1 
    25    20    47   am
    26    22    23   1 
    27    22    46   am
    28    22    47   am
    29    24    25   1 
    30    24    26   1 
    31    24    29   1 
    32    26    27   1 
    33    26    28   1 
    34    29    30   1 
    35    29    33   1 
    36    31    35   ar
    37    31    37   ar
    38    32    36   2 
    39    33    34   1 
    40    33    39   1 
    41    35    42   ar
    42    36    46   1 
    43    37    38   1 
    44    37    44   ar
    45    39    40   1 
    46    39    41   1 
    47    42    43   1 
    48    42    45   ar
    49    44    45   ar
    50    44    48   1 
    51    45    52   1 
    52    48    49   1 
    53    48    50   1 
    54    48    51   1 
    55    52    53   1 
    56    52    54   1 
    57    52    55   1 
#MOLECULE END
 
#  inp11.mol2              5    of   10
#                 SCORE =  -278.0334
#              dG-SCORE =    -5.7689
#     LIGAND_EFFICIENCY =    -0.8969
# NUMBER_OF_HEAVY_ATOMS =         31
#                   ASA =  -239.2238
#                   ELE =     0.0000
#                   HYD =   -32.0920
#                   VDW =    -6.7176
#                  RMSD =    29.4466
@<TRIPOS>MOLECULE
inp11.mol2                                                                      
   55   57    0    0    0
SMALL       
GASTEIGER      
 
@<TRIPOS>ATOM
    1 P        85.9445   82.0753   70.2602 P.3      1 UNK          0.0000
    2 O        90.0484   78.6249   74.4720 O.3      1 UNK          0.0000
    3 H        89.1057   78.8415   74.3644 H        1 UNK          0.0000
    4 O        91.0240   81.2825   72.1710 O.3      1 UNK          0.0000
    5 H        90.4529   82.0650   72.0479 H        1 UNK          0.0000
    6 O        88.6051   81.7403   73.7537 O.3      1 UNK          0.0000
    7 H        87.8321   82.2629   73.4797 H        1 UNK          0.0000
    8 O        86.6791   81.2557   71.4569 O.3      1 UNK          0.0000
    9 O        92.4720   74.8749   78.2129 O.2      1 UNK          0.0000
   10 O        93.8524   74.5221   73.9234 O.2      1 UNK          0.0000
   11 O        84.3900   82.3149   70.5004 O.3      1 UNK          0.0000
   12 H        84.2907   82.9105   71.2582 H        1 UNK          0.0000
   13 O        86.6210   83.5144   70.0871 O.3      1 UNK          0.0000
   14 H        86.1895   83.9553   69.3339 H        1 UNK          0.0000
   15 O        85.9795   81.2932   68.8752 O.3      1 UNK          0.0000
   16 H        85.4012   80.5150   68.9492 H        1 UNK          0.0000
   17 N        92.7629   78.9063   75.4453 N.pl3    1 UNK          0.0000
   18 N        92.4255   77.7596   78.0967 N.pl3    1 UNK          0.0000
   19 H        92.1375   77.3723   78.9822 H        1 UNK          0.0000
   20 N        93.3202   76.6113   74.6144 N.am     1 UNK          0.0000
   21 H        93.5128   76.9478   73.6816 H        1 UNK          0.0000
   22 N        93.1281   74.6294   76.0672 N.am     1 UNK          0.0000
   23 H        93.1514   73.6126   76.1485 H        1 UNK          0.0000
   24 C        90.8154   79.7679   74.0655 C.3      1 UNK          0.0000
   25 H        90.6574   80.5952   74.7695 H        1 UNK          0.0000
   26 C        92.3594   79.4455   74.1001 C.3      1 UNK          0.0000
   27 H        92.9297   80.3623   73.8675 H        1 UNK          0.0000
   28 H        92.5891   78.7318   73.3009 H        1 UNK          0.0000
   29 C        90.2157   80.2266   72.7014 C.3      1 UNK          0.0000
   30 H        90.2582   79.3701   72.0161 H        1 UNK          0.0000
   31 C        92.9114   79.7268   76.6087 C.ar     1 UNK          0.0000
   32 C        92.9232   77.4658   75.6523 C.2      1 UNK          0.0000
   33 C        88.7061   80.6623   72.8196 C.3      1 UNK          0.0000
   34 H        88.1214   79.8050   73.1771 H        1 UNK          0.0000
   35 C        92.6971   79.1687   77.9355 C.ar     1 UNK          0.0000
   36 C        92.6751   76.9341   76.9830 C.2      1 UNK          0.0000
   37 C        93.3197   81.1252   76.5113 C.ar     1 UNK          0.0000
   38 H        93.5387   81.5633   75.5461 H        1 UNK          0.0000
   39 C        88.1175   81.0913   71.4456 C.3      1 UNK          0.0000
   40 H        88.4039   80.3452   70.7020 H        1 UNK          0.0000
   41 H        88.5855   82.0370   71.1504 H        1 UNK          0.0000
   42 C        92.8098   79.9650   79.0872 C.ar     1 UNK          0.0000
   43 H        92.6422   79.5297   80.0488 H        1 UNK          0.0000
   44 C        93.5082   81.8992   77.6955 C.ar     1 UNK          0.0000
   45 C        93.2314   81.3415   78.9819 C.ar     1 UNK          0.0000
   46 C        92.7401   75.4045   77.1626 C.2      1 UNK          0.0000
   47 C        93.4639   75.2069   74.8297 C.2      1 UNK          0.0000
   48 C        94.0740   83.3355   77.5885 C.3      1 UNK          0.0000
   49 H        93.3718   84.0699   77.9987 H        1 UNK          0.0000
   50 H        94.2890   83.6198   76.5521 H        1 UNK          0.0000
   51 H        95.0125   83.4215   78.1532 H        1 UNK          0.0000
   52 C        93.4348   82.1729   80.2314 C.3      1 UNK          0.0000
   53 H        92.9247   81.7345   81.0850 H        1 UNK          0.0000
   54 H        94.4955   82.2811   80.4824 H        1 UNK          0.0000
   55 H        93.0430   83.1822   80.0892 H        1 UNK          0.0000
@<TRIPOS>BOND
     1     1     8   1 
     2     1    11   1 
     3     1    13   1 
     4     1    15   1 
     5     2     3   1 
     6     2    24   1 
     7     4     5   1 
     8     4    29   1 
     9     6     7   1 
    10     6    33   1 
    11     8    39   1 
    12     9    46   2 
    13    10    47   2 
    14    11    12   1 
    15    13    14   1 
    16    15    16   1 
    17    17    26   1 
    18    17    31   1 
    19    17    32   1 
    20    18    19   1 
    21    18    35   1 
    22    18    36   1 
    23    20    21   1 
    24    20    32   1 
    25    20    47   am
    26    22    23   1 
    27    22    46   am
    28    22    47   am
    29    24    25   1 
    30    24    26   1 
    31    24    29   1 
    32    26    27   1 
    33    26    28   1 
    34    29    30   1 
    35    29    33   1 
    36    31    35   ar
    37    31    37   ar
    38    32    36   2 
    39    33    34   1 
    40    33    39   1 
    41    35    42   ar
    42    36    46   1 
    43    37    38   1 
    44    37    44   ar
    45    39    40   1 
    46    39    41   1 
    47    42    43   1 
    48    42    45   ar
    49    44    45   ar
    50    44    48   1 
    51    45    52   1 
    52    48    49   1 
    53    48    50   1 
    54    48    51   1 
    55    52    53   1 
    56    52    54   1 
    57    52    55   1 
#MOLECULE END
 
#  inp11.mol2              6    of   10
#                 SCORE =  -298.1285
#              dG-SCORE =    -6.9426
#     LIGAND_EFFICIENCY =    -0.9617
# NUMBER_OF_HEAVY_ATOMS =         31
#                   ASA =  -234.0171
#                   ELE =     0.0000
#                   HYD =   -64.1114
#                   VDW =     0.0000
#                  RMSD =    28.7259
@<TRIPOS>MOLECULE
inp11.mol2                                                                      
   55   57    0    0    0
SMALL       
GASTEIGER      
 
@<TRIPOS>ATOM
    1 P        88.9662   82.0206   71.6654 P.3      1 UNK          0.0000
    2 O        93.9486   79.6283   75.7265 O.3      1 UNK          0.0000
    3 H        93.8875   80.1149   74.8800 H        1 UNK          0.0000
    4 O        90.3979   78.6142   75.6797 O.3      1 UNK          0.0000
    5 H        89.9071   78.5473   74.8378 H        1 UNK          0.0000
    6 O        91.7474   79.0752   73.0859 O.3      1 UNK          0.0000
    7 H        91.3975   79.3869   72.2283 H        1 UNK          0.0000
    8 O        90.2570   81.3793   72.3865 O.3      1 UNK          0.0000
    9 O        98.4759   79.3009   78.5439 O.2      1 UNK          0.0000
   10 O        94.9698   80.7102   80.9721 O.2      1 UNK          0.0000
   11 O        89.4034   82.5882   70.2301 O.3      1 UNK          0.0000
   12 H        89.7327   81.8572   69.6793 H        1 UNK          0.0000
   13 O        87.8485   80.8829   71.4777 O.3      1 UNK          0.0000
   14 H        87.0667   81.2747   71.0502 H        1 UNK          0.0000
   15 O        88.3982   83.2231   72.5656 O.3      1 UNK          0.0000
   16 H        89.0477   83.9473   72.5779 H        1 UNK          0.0000
   17 N        94.1056   77.5488   77.6327 N.pl3    1 UNK          0.0000
   18 N        96.8700   77.4909   77.0663 N.pl3    1 UNK          0.0000
   19 H        97.8274   77.5911   76.7366 H        1 UNK          0.0000
   20 N        94.5419   79.1757   79.4008 N.am     1 UNK          0.0000
   21 H        93.5689   79.1793   79.6776 H        1 UNK          0.0000
   22 N        96.7611   80.0565   79.7896 N.am     1 UNK          0.0000
   23 H        97.3656   80.6761   80.3140 H        1 UNK          0.0000
   24 C        92.8153   78.7541   75.8010 C.3      1 UNK          0.0000
   25 H        92.9292   77.9550   75.0566 H        1 UNK          0.0000
   26 C        92.7761   78.0893   77.2061 C.3      1 UNK          0.0000
   27 H        92.0241   77.2877   77.2080 H        1 UNK          0.0000
   28 H        92.4244   78.8342   77.9322 H        1 UNK          0.0000
   29 C        91.4902   79.5134   75.4831 C.3      1 UNK          0.0000
   30 H        91.3917   80.3517   76.1854 H        1 UNK          0.0000
   31 C        94.6749   76.4190   77.0013 C.ar     1 UNK          0.0000
   32 C        94.9895   78.3568   78.3747 C.2      1 UNK          0.0000
   33 C        91.4702   80.1028   74.0385 C.3      1 UNK          0.0000
   34 H        92.2497   80.8714   73.9716 H        1 UNK          0.0000
   35 C        96.0608   76.4122   76.6905 C.ar     1 UNK          0.0000
   36 C        96.3641   78.3572   78.0430 C.2      1 UNK          0.0000
   37 C        93.8865   75.2983   76.6725 C.ar     1 UNK          0.0000
   38 H        92.8291   75.2706   76.9212 H        1 UNK          0.0000
   39 C        90.1292   80.7981   73.6925 C.3      1 UNK          0.0000
   40 H        89.9064   81.5803   74.4307 H        1 UNK          0.0000
   41 H        89.3099   80.0677   73.7012 H        1 UNK          0.0000
   42 C        96.6349   75.3065   76.0420 C.ar     1 UNK          0.0000
   43 H        97.6978   75.2992   75.8076 H        1 UNK          0.0000
   44 C        94.4637   74.1888   76.0237 C.ar     1 UNK          0.0000
   45 C        95.8423   74.1937   75.7035 C.ar     1 UNK          0.0000
   46 C        97.2879   79.2598   78.7927 C.2      1 UNK          0.0000
   47 C        95.4113   80.0093   80.0883 C.2      1 UNK          0.0000
   48 C        93.5838   72.9855   75.6801 C.3      1 UNK          0.0000
   49 H        93.6239   72.7572   74.6077 H        1 UNK          0.0000
   50 H        92.5304   73.1606   75.9349 H        1 UNK          0.0000
   51 H        93.9077   72.0915   76.2276 H        1 UNK          0.0000
   52 C        96.4931   73.0015   75.0023 C.3      1 UNK          0.0000
   53 H        97.5725   73.1448   74.8663 H        1 UNK          0.0000
   54 H        96.3589   72.0784   75.5812 H        1 UNK          0.0000
   55 H        96.0576   72.8422   74.0078 H        1 UNK          0.0000
@<TRIPOS>BOND
     1     1     8   1 
     2     1    11   1 
     3     1    13   1 
     4     1    15   1 
     5     2     3   1 
     6     2    24   1 
     7     4     5   1 
     8     4    29   1 
     9     6     7   1 
    10     6    33   1 
    11     8    39   1 
    12     9    46   2 
    13    10    47   2 
    14    11    12   1 
    15    13    14   1 
    16    15    16   1 
    17    17    26   1 
    18    17    31   1 
    19    17    32   1 
    20    18    19   1 
    21    18    35   1 
    22    18    36   1 
    23    20    21   1 
    24    20    32   1 
    25    20    47   am
    26    22    23   1 
    27    22    46   am
    28    22    47   am
    29    24    25   1 
    30    24    26   1 
    31    24    29   1 
    32    26    27   1 
    33    26    28   1 
    34    29    30   1 
    35    29    33   1 
    36    31    35   ar
    37    31    37   ar
    38    32    36   2 
    39    33    34   1 
    40    33    39   1 
    41    35    42   ar
    42    36    46   1 
    43    37    38   1 
    44    37    44   ar
    45    39    40   1 
    46    39    41   1 
    47    42    43   1 
    48    42    45   ar
    49    44    45   ar
    50    44    48   1 
    51    45    52   1 
    52    48    49   1 
    53    48    50   1 
    54    48    51   1 
    55    52    53   1 
    56    52    54   1 
    57    52    55   1 
#MOLECULE END
 
#  inp11.mol2              7    of   10
#                 SCORE =  -280.9261
#              dG-SCORE =    -6.8579
#     LIGAND_EFFICIENCY =    -0.9062
# NUMBER_OF_HEAVY_ATOMS =         31
#                   ASA =  -192.5209
#                   ELE =     0.0000
#                   HYD =   -88.4053
#                   VDW =     0.0000
#                  RMSD =    31.9355
@<TRIPOS>MOLECULE
inp11.mol2                                                                      
   55   57    0    0    0
SMALL       
GASTEIGER      
 
@<TRIPOS>ATOM
    1 P        91.5700   76.1905   69.8478 P.3      1 UNK          0.0000
    2 O        89.0940   82.4297   71.2558 O.3      1 UNK          0.0000
    3 H        89.8986   82.0556   70.8439 H        1 UNK          0.0000
    4 O        88.0595   79.2082   72.7355 O.3      1 UNK          0.0000
    5 H        88.7164   78.5111   72.9276 H        1 UNK          0.0000
    6 O        90.9486   79.6687   72.2861 O.3      1 UNK          0.0000
    7 H        91.6733   79.0442   72.0862 H        1 UNK          0.0000
    8 O        91.2439   77.7148   70.2577 O.3      1 UNK          0.0000
    9 O        87.7319   87.5729   70.7729 O.2      1 UNK          0.0000
   10 O        84.4187   84.7465   69.6734 O.2      1 UNK          0.0000
   11 O        93.0865   76.1061   69.3316 O.3      1 UNK          0.0000
   12 H        93.6881   76.3676   70.0497 H        1 UNK          0.0000
   13 O        91.3854   75.2482   71.1350 O.3      1 UNK          0.0000
   14 H        91.5741   74.3273   70.8828 H        1 UNK          0.0000
   15 O        90.5780   75.7339   68.6704 O.3      1 UNK          0.0000
   16 H        90.7795   76.2441   67.8670 H        1 UNK          0.0000
   17 N        87.2589   83.4367   73.1534 N.pl3    1 UNK          0.0000
   18 N        88.6150   85.8971   72.8824 N.pl3    1 UNK          0.0000
   19 H        89.2157   86.6928   72.6793 H        1 UNK          0.0000
   20 N        85.7474   84.1171   71.3602 N.am     1 UNK          0.0000
   21 H        85.1957   83.2759   71.4665 H        1 UNK          0.0000
   22 N        86.0580   86.1975   70.1654 N.am     1 UNK          0.0000
   23 H        85.7542   86.8282   69.4346 H        1 UNK          0.0000
   24 C        88.6622   81.5090   72.2659 C.3      1 UNK          0.0000
   25 H        89.3831   81.5211   73.0940 H        1 UNK          0.0000
   26 C        87.2892   81.9757   72.8272 C.3      1 UNK          0.0000
   27 H        87.0416   81.3841   73.7198 H        1 UNK          0.0000
   28 H        86.5140   81.7415   72.0858 H        1 UNK          0.0000
   29 C        88.5965   80.0511   71.7150 C.3      1 UNK          0.0000
   30 H        87.9215   80.0357   70.8491 H        1 UNK          0.0000
   31 C        87.9967   83.9612   74.2396 C.ar     1 UNK          0.0000
   32 C        86.8354   84.3666   72.1836 C.2      1 UNK          0.0000
   33 C        89.9874   79.5282   71.2388 C.3      1 UNK          0.0000
   34 H        90.3043   80.1321   70.3799 H        1 UNK          0.0000
   35 C        88.7028   85.1837   74.0837 C.ar     1 UNK          0.0000
   36 C        87.5584   85.5712   72.0235 C.2      1 UNK          0.0000
   37 C        88.0447   83.2873   75.4762 C.ar     1 UNK          0.0000
   38 H        87.4939   82.3628   75.6268 H        1 UNK          0.0000
   39 C        89.9420   78.0565   70.7554 C.3      1 UNK          0.0000
   40 H        89.1944   77.9423   69.9590 H        1 UNK          0.0000
   41 H        89.6700   77.3926   71.5861 H        1 UNK          0.0000
   42 C        89.4591   85.7043   75.1465 C.ar     1 UNK          0.0000
   43 H        89.9969   86.6433   75.0287 H        1 UNK          0.0000
   44 C        88.8021   83.8112   76.5425 C.ar     1 UNK          0.0000
   45 C        89.5154   85.0224   76.3766 C.ar     1 UNK          0.0000
   46 C        87.1421   86.5269   70.9542 C.2      1 UNK          0.0000
   47 C        85.3725   85.0137   70.3708 C.2      1 UNK          0.0000
   48 C        88.8346   83.0588   77.8740 C.3      1 UNK          0.0000
   49 H        89.8637   82.8217   78.1713 H        1 UNK          0.0000
   50 H        88.2852   82.1097   77.8231 H        1 UNK          0.0000
   51 H        88.3811   83.6558   78.6750 H        1 UNK          0.0000
   52 C        90.3420   85.6132   77.5185 C.3      1 UNK          0.0000
   53 H        90.7951   86.5737   77.2426 H        1 UNK          0.0000
   54 H        89.7225   85.7903   78.4073 H        1 UNK          0.0000
   55 H        91.1584   84.9383   77.8056 H        1 UNK          0.0000
@<TRIPOS>BOND
     1     1     8   1 
     2     1    11   1 
     3     1    13   1 
     4     1    15   1 
     5     2     3   1 
     6     2    24   1 
     7     4     5   1 
     8     4    29   1 
     9     6     7   1 
    10     6    33   1 
    11     8    39   1 
    12     9    46   2 
    13    10    47   2 
    14    11    12   1 
    15    13    14   1 
    16    15    16   1 
    17    17    26   1 
    18    17    31   1 
    19    17    32   1 
    20    18    19   1 
    21    18    35   1 
    22    18    36   1 
    23    20    21   1 
    24    20    32   1 
    25    20    47   am
    26    22    23   1 
    27    22    46   am
    28    22    47   am
    29    24    25   1 
    30    24    26   1 
    31    24    29   1 
    32    26    27   1 
    33    26    28   1 
    34    29    30   1 
    35    29    33   1 
    36    31    35   ar
    37    31    37   ar
    38    32    36   2 
    39    33    34   1 
    40    33    39   1 
    41    35    42   ar
    42    36    46   1 
    43    37    38   1 
    44    37    44   ar
    45    39    40   1 
    46    39    41   1 
    47    42    43   1 
    48    42    45   ar
    49    44    45   ar
    50    44    48   1 
    51    45    52   1 
    52    48    49   1 
    53    48    50   1 
    54    48    51   1 
    55    52    53   1 
    56    52    54   1 
    57    52    55   1 
#MOLECULE END
 
#  inp11.mol2              8    of   10
#                 SCORE =  -254.8523
#              dG-SCORE =    -6.4845
#     LIGAND_EFFICIENCY =    -0.8221
# NUMBER_OF_HEAVY_ATOMS =         31
#                   ASA =  -146.0643
#                   ELE =     0.0000
#                   HYD =  -108.7879
#                   VDW =     0.0000
#                  RMSD =    28.5696
@<TRIPOS>MOLECULE
inp11.mol2                                                                      
   55   57    0    0    0
SMALL       
GASTEIGER      
 
@<TRIPOS>ATOM
    1 P        97.5491   73.9669   71.3318 P.3      1 UNK          0.0000
    2 O        91.9512   77.9051   71.7711 O.3      1 UNK          0.0000
    3 H        92.8018   77.8156   72.2459 H        1 UNK          0.0000
    4 O        92.2903   74.6549   70.0511 O.3      1 UNK          0.0000
    5 H        92.8370   73.9408   70.4325 H        1 UNK          0.0000
    6 O        93.6026   74.9789   72.6843 O.3      1 UNK          0.0000
    7 H        94.4119   74.5720   73.0511 H        1 UNK          0.0000
    8 O        96.2570   74.8548   71.7053 O.3      1 UNK          0.0000
    9 O        88.7820   82.1718   72.3128 O.2      1 UNK          0.0000
   10 O        89.7086   81.1788   68.0315 O.2      1 UNK          0.0000
   11 O        98.6188   74.0829   72.5216 O.3      1 UNK          0.0000
   12 H        98.2305   73.7323   73.3416 H        1 UNK          0.0000
   13 O        97.1021   72.4345   71.1561 O.3      1 UNK          0.0000
   14 H        97.8824   71.9020   70.9218 H        1 UNK          0.0000
   15 O        98.1992   74.5219   69.9722 O.3      1 UNK          0.0000
   16 H        98.5599   75.4114   70.1304 H        1 UNK          0.0000
   17 N        89.2538   77.5853   70.9935 N.pl3    1 UNK          0.0000
   18 N        88.6405   79.4341   73.0360 N.pl3    1 UNK          0.0000
   19 H        88.5935   80.0912   73.8114 H        1 UNK          0.0000
   20 N        89.4642   79.4462   69.4263 N.am     1 UNK          0.0000
   21 H        89.6260   78.8147   68.6528 H        1 UNK          0.0000
   22 N        89.2568   81.7435   70.1555 N.am     1 UNK          0.0000
   23 H        89.2783   82.7288   69.9252 H        1 UNK          0.0000
   24 C        91.5780   76.6002   71.3104 C.3      1 UNK          0.0000
   25 H        91.3061   75.9792   72.1742 H        1 UNK          0.0000
   26 C        90.3228   76.7207   70.4006 C.3      1 UNK          0.0000
   27 H        89.9257   75.7168   70.1945 H        1 UNK          0.0000
   28 H        90.6364   77.1260   69.4295 H        1 UNK          0.0000
   29 C        92.7606   75.8979   70.5746 C.3      1 UNK          0.0000
   30 H        93.0810   76.5366   69.7408 H        1 UNK          0.0000
   31 C        88.5184   77.1690   72.1270 C.ar     1 UNK          0.0000
   32 C        89.2210   78.9636   70.7037 C.2      1 UNK          0.0000
   33 C        93.9959   75.6772   71.5019 C.3      1 UNK          0.0000
   34 H        94.3927   76.6603   71.7831 H        1 UNK          0.0000
   35 C        88.2427   78.0982   73.1653 C.ar     1 UNK          0.0000
   36 C        88.9655   79.8806   71.7494 C.2      1 UNK          0.0000
   37 C        88.0561   75.8430   72.2444 C.ar     1 UNK          0.0000
   38 H        88.2345   75.1204   71.4527 H        1 UNK          0.0000
   39 C        95.1479   74.9177   70.7967 C.3      1 UNK          0.0000
   40 H        95.4440   75.4451   69.8798 H        1 UNK          0.0000
   41 H        94.8245   73.9043   70.5262 H        1 UNK          0.0000
   42 C        87.5338   77.6924   74.3079 C.ar     1 UNK          0.0000
   43 H        87.3186   78.4053   75.1018 H        1 UNK          0.0000
   44 C        87.3434   75.4373   73.3901 C.ar     1 UNK          0.0000
   45 C        87.0841   76.3640   74.4280 C.ar     1 UNK          0.0000
   46 C        88.9908   81.3433   71.4497 C.2      1 UNK          0.0000
   47 C        89.4851   80.8077   69.1627 C.2      1 UNK          0.0000
   48 C        86.8525   73.9919   73.4895 C.3      1 UNK          0.0000
   49 H        87.2272   73.5067   74.3993 H        1 UNK          0.0000
   50 H        87.1863   73.3851   72.6377 H        1 UNK          0.0000
   51 H        85.7564   73.9488   73.5112 H        1 UNK          0.0000
   52 C        86.3109   75.9497   75.6797 C.3      1 UNK          0.0000
   53 H        86.1572   76.7931   76.3647 H        1 UNK          0.0000
   54 H        85.3190   75.5564   75.4220 H        1 UNK          0.0000
   55 H        86.8481   75.1714   76.2364 H        1 UNK          0.0000
@<TRIPOS>BOND
     1     1     8   1 
     2     1    11   1 
     3     1    13   1 
     4     1    15   1 
     5     2     3   1 
     6     2    24   1 
     7     4     5   1 
     8     4    29   1 
     9     6     7   1 
    10     6    33   1 
    11     8    39   1 
    12     9    46   2 
    13    10    47   2 
    14    11    12   1 
    15    13    14   1 
    16    15    16   1 
    17    17    26   1 
    18    17    31   1 
    19    17    32   1 
    20    18    19   1 
    21    18    35   1 
    22    18    36   1 
    23    20    21   1 
    24    20    32   1 
    25    20    47   am
    26    22    23   1 
    27    22    46   am
    28    22    47   am
    29    24    25   1 
    30    24    26   1 
    31    24    29   1 
    32    26    27   1 
    33    26    28   1 
    34    29    30   1 
    35    29    33   1 
    36    31    35   ar
    37    31    37   ar
    38    32    36   2 
    39    33    34   1 
    40    33    39   1 
    41    35    42   ar
    42    36    46   1 
    43    37    38   1 
    44    37    44   ar
    45    39    40   1 
    46    39    41   1 
    47    42    43   1 
    48    42    45   ar
    49    44    45   ar
    50    44    48   1 
    51    45    52   1 
    52    48    49   1 
    53    48    50   1 
    54    48    51   1 
    55    52    53   1 
    56    52    54   1 
    57    52    55   1 
#MOLECULE END
 
#  inp11.mol2              9    of   10
#                 SCORE =  -288.8539
#              dG-SCORE =    -6.9372
#     LIGAND_EFFICIENCY =    -0.9318
# NUMBER_OF_HEAVY_ATOMS =         31
#                   ASA =  -208.9452
#                   ELE =     0.0000
#                   HYD =   -79.9087
#                   VDW =     0.0000
#                  RMSD =    27.3774
@<TRIPOS>MOLECULE
inp11.mol2                                                                      
   55   57    0    0    0
SMALL       
GASTEIGER      
 
@<TRIPOS>ATOM
    1 P        95.8616   82.7384   78.7010 P.3      1 UNK          0.0000
    2 O        94.8663   76.2175   76.8229 O.3      1 UNK          0.0000
    3 H        95.6100   76.7618   77.1511 H        1 UNK          0.0000
    4 O        92.7668   79.1435   76.0052 O.3      1 UNK          0.0000
    5 H        93.1707   80.0120   75.8133 H        1 UNK          0.0000
    6 O        95.7070   79.4731   75.9184 O.3      1 UNK          0.0000
    7 H        96.2693   80.2543   76.0881 H        1 UNK          0.0000
    8 O        95.8697   81.2299   78.1335 O.3      1 UNK          0.0000
    9 O        95.0045   70.8771   76.7721 O.2      1 UNK          0.0000
   10 O        91.3470   72.5409   78.7793 O.2      1 UNK          0.0000
   11 O        97.3742   83.1964   78.9761 O.3      1 UNK          0.0000
   12 H        97.8734   83.1837   78.1414 H        1 UNK          0.0000
   13 O        95.1948   83.7084   77.6085 O.3      1 UNK          0.0000
   14 H        95.1830   84.6170   77.9572 H        1 UNK          0.0000
   15 O        95.0308   82.7841   80.0744 O.3      1 UNK          0.0000
   16 H        95.5084   82.2774   80.7538 H        1 UNK          0.0000
   17 N        93.0259   74.9198   75.1166 N.pl3    1 UNK          0.0000
   18 N        94.9998   72.9256   74.8120 N.pl3    1 UNK          0.0000
   19 H        95.8138   72.3152   74.8005 H        1 UNK          0.0000
   20 N        92.1168   73.6753   77.0109 N.am     1 UNK          0.0000
   21 H        91.3559   74.3337   77.1156 H        1 UNK          0.0000
   22 N        93.1802   71.6626   77.8295 N.am     1 UNK          0.0000
   23 H        93.1969   70.9056   78.5010 H        1 UNK          0.0000
   24 C        94.0245   77.0711   76.0373 C.3      1 UNK          0.0000
   25 H        94.5507   77.3406   75.1121 H        1 UNK          0.0000
   26 C        92.7383   76.2927   75.6404 C.3      1 UNK          0.0000
   27 H        92.1787   76.8726   74.8930 H        1 UNK          0.0000
   28 H        92.0864   76.2282   76.5216 H        1 UNK          0.0000
   29 C        93.6901   78.3927   76.7954 C.3      1 UNK          0.0000
   30 H        93.2137   78.1357   77.7507 H        1 UNK          0.0000
   31 C        93.6513   74.7292   73.8630 C.ar     1 UNK          0.0000
   32 C        93.0528   73.8209   75.9977 C.2      1 UNK          0.0000
   33 C        94.9623   79.2379   77.1144 C.3      1 UNK          0.0000
   34 H        95.5841   78.6689   77.8162 H        1 UNK          0.0000
   35 C        94.6668   73.7454   73.7273 C.ar     1 UNK          0.0000
   36 C        94.0804   72.8585   75.8659 C.2      1 UNK          0.0000
   37 C        93.2841   75.5034   72.7444 C.ar     1 UNK          0.0000
   38 H        92.4940   76.2457   72.8178 H        1 UNK          0.0000
   39 C        94.6305   80.5848   77.8053 C.3      1 UNK          0.0000
   40 H        94.0464   80.4083   78.7186 H        1 UNK          0.0000
   41 H        94.0411   81.2211   77.1327 H        1 UNK          0.0000
   42 C        95.3132   73.5615   72.4940 C.ar     1 UNK          0.0000
   43 H        96.0885   72.8047   72.3886 H        1 UNK          0.0000
   44 C        93.9318   75.3169   71.5071 C.ar     1 UNK          0.0000
   45 C        94.9530   74.3450   71.3815 C.ar     1 UNK          0.0000
   46 C        94.1400   71.7275   76.8392 C.2      1 UNK          0.0000
   47 C        92.1849   72.6199   77.9081 C.2      1 UNK          0.0000
   48 C        93.5113   76.1709   70.3095 C.3      1 UNK          0.0000
   49 H        94.3666   76.7147   69.8895 H        1 UNK          0.0000
   50 H        92.7548   76.9180   70.5830 H        1 UNK          0.0000
   51 H        93.0830   75.5491   69.5134 H        1 UNK          0.0000
   52 C        95.6690   74.1214   70.0498 C.3      1 UNK          0.0000
   53 H        96.4001   73.3052   70.1091 H        1 UNK          0.0000
   54 H        94.9577   73.8623   69.2548 H        1 UNK          0.0000
   55 H        96.2113   75.0225   69.7365 H        1 UNK          0.0000
@<TRIPOS>BOND
     1     1     8   1 
     2     1    11   1 
     3     1    13   1 
     4     1    15   1 
     5     2     3   1 
     6     2    24   1 
     7     4     5   1 
     8     4    29   1 
     9     6     7   1 
    10     6    33   1 
    11     8    39   1 
    12     9    46   2 
    13    10    47   2 
    14    11    12   1 
    15    13    14   1 
    16    15    16   1 
    17    17    26   1 
    18    17    31   1 
    19    17    32   1 
    20    18    19   1 
    21    18    35   1 
    22    18    36   1 
    23    20    21   1 
    24    20    32   1 
    25    20    47   am
    26    22    23   1 
    27    22    46   am
    28    22    47   am
    29    24    25   1 
    30    24    26   1 
    31    24    29   1 
    32    26    27   1 
    33    26    28   1 
    34    29    30   1 
    35    29    33   1 
    36    31    35   ar
    37    31    37   ar
    38    32    36   2 
    39    33    34   1 
    40    33    39   1 
    41    35    42   ar
    42    36    46   1 
    43    37    38   1 
    44    37    44   ar
    45    39    40   1 
    46    39    41   1 
    47    42    43   1 
    48    42    45   ar
    49    44    45   ar
    50    44    48   1 
    51    45    52   1 
    52    48    49   1 
    53    48    50   1 
    54    48    51   1 
    55    52    53   1 
    56    52    54   1 
    57    52    55   1 
#MOLECULE END
 
#  inp11.mol2             10    of   10
#                 SCORE =  -255.3420
#              dG-SCORE =    -5.0558
#     LIGAND_EFFICIENCY =    -0.8237
# NUMBER_OF_HEAVY_ATOMS =         31
#                   ASA =  -224.2601
#                   ELE =     0.0000
#                   HYD =   -24.1570
#                   VDW =    -6.9249
#                  RMSD =    29.3428
@<TRIPOS>MOLECULE
inp11.mol2                                                                      
   55   57    0    0    0
SMALL       
GASTEIGER      
 
@<TRIPOS>ATOM
    1 P        96.2504   80.5504   78.4342 P.3      1 UNK          0.0000
    2 O        91.4472   78.6926   73.9010 O.3      1 UNK          0.0000
    3 H        92.4178   78.7723   73.9063 H        1 UNK          0.0000
    4 O        91.2146   81.1980   76.6020 O.3      1 UNK          0.0000
    5 H        91.8374   81.4273   77.3161 H        1 UNK          0.0000
    6 O        93.5683   81.2404   75.1825 O.3      1 UNK          0.0000
    7 H        94.5197   81.3920   75.3140 H        1 UNK          0.0000
    8 O        95.2750   80.2144   77.1980 O.3      1 UNK          0.0000
    9 O        88.5664   75.8075   70.0765 O.2      1 UNK          0.0000
   10 O        86.8407   74.8616   74.0712 O.2      1 UNK          0.0000
   11 O        97.7603   80.6450   77.8996 O.3      1 UNK          0.0000
   12 H        97.8132   81.3033   77.1853 H        1 UNK          0.0000
   13 O        95.8001   81.9272   79.1148 O.3      1 UNK          0.0000
   14 H        96.4363   82.1443   79.8086 H        1 UNK          0.0000
   15 O        96.1572   79.3418   79.4545 O.3      1 UNK          0.0000
   16 H        96.3506   78.5382   78.9481 H        1 UNK          0.0000
   17 N        88.7080   79.2575   73.5108 N.pl3    1 UNK          0.0000
   18 N        89.1573   78.5878   70.8058 N.pl3    1 UNK          0.0000
   19 H        89.4917   78.3310   69.8804 H        1 UNK          0.0000
   20 N        87.8275   76.9189   73.9057 N.am     1 UNK          0.0000
   21 H        87.5461   77.0941   74.8391 H        1 UNK          0.0000
   22 N        87.9197   75.2341   72.1583 N.am     1 UNK          0.0000
   23 H        87.7802   74.2720   71.9037 H        1 UNK          0.0000
   24 C        90.9020   79.7877   74.6463 C.3      1 UNK          0.0000
   25 H        91.0492   80.7082   74.0717 H        1 UNK          0.0000
   26 C        89.3421   79.5906   74.7950 C.3      1 UNK          0.0000
   27 H        88.8758   80.5139   75.1823 H        1 UNK          0.0000
   28 H        89.1465   78.7753   75.4976 H        1 UNK          0.0000
   29 C        91.6842   79.9798   75.9939 C.3      1 UNK          0.0000
   30 H        91.5013   79.1034   76.6316 H        1 UNK          0.0000
   31 C        88.6039   80.3022   72.5552 C.ar     1 UNK          0.0000
   32 C        88.4580   77.8992   73.1068 C.2      1 UNK          0.0000
   33 C        93.2279   80.0667   75.9276 C.3      1 UNK          0.0000
   34 H        93.6115   79.1715   75.4236 H        1 UNK          0.0000
   35 C        88.8737   79.9574   71.1683 C.ar     1 UNK          0.0000
   36 C        88.7980   77.5598   71.7254 C.2      1 UNK          0.0000
   37 C        88.3174   81.6701   72.9202 C.ar     1 UNK          0.0000
   38 H        88.1958   81.9552   73.9613 H        1 UNK          0.0000
   39 C        93.8501   80.0904   77.3597 C.3      1 UNK          0.0000
   40 H        93.6001   79.1738   77.9174 H        1 UNK          0.0000
   41 H        93.4523   80.9458   77.9239 H        1 UNK          0.0000
   42 C        88.8186   80.9922   70.1877 C.ar     1 UNK          0.0000
   43 H        89.0442   80.7723   69.1462 H        1 UNK          0.0000
   44 C        88.1727   82.6796   71.9195 C.ar     1 UNK          0.0000
   45 C        88.4302   82.3311   70.5395 C.ar     1 UNK          0.0000
   46 C        88.4947   76.1382   71.2491 C.2      1 UNK          0.0000
   47 C        87.4994   75.6319   73.4236 C.2      1 UNK          0.0000
   48 C        87.7765   84.1104   72.3446 C.3      1 UNK          0.0000
   49 H        88.5353   84.8367   72.0230 H        1 UNK          0.0000
   50 H        87.6740   84.2185   73.4330 H        1 UNK          0.0000
   51 H        86.8202   84.4174   71.9008 H        1 UNK          0.0000
   52 C        88.3219   83.3566   69.4119 C.3      1 UNK          0.0000
   53 H        88.4533   82.8933   68.4255 H        1 UNK          0.0000
   54 H        87.3424   83.8535   69.4106 H        1 UNK          0.0000
   55 H        89.0929   84.1315   69.5116 H        1 UNK          0.0000
@<TRIPOS>BOND
     1     1     8   1 
     2     1    11   1 
     3     1    13   1 
     4     1    15   1 
     5     2     3   1 
     6     2    24   1 
     7     4     5   1 
     8     4    29   1 
     9     6     7   1 
    10     6    33   1 
    11     8    39   1 
    12     9    46   2 
    13    10    47   2 
    14    11    12   1 
    15    13    14   1 
    16    15    16   1 
    17    17    26   1 
    18    17    31   1 
    19    17    32   1 
    20    18    19   1 
    21    18    35   1 
    22    18    36   1 
    23    20    21   1 
    24    20    32   1 
    25    20    47   am
    26    22    23   1 
    27    22    46   am
    28    22    47   am
    29    24    25   1 
    30    24    26   1 
    31    24    29   1 
    32    26    27   1 
    33    26    28   1 
    34    29    30   1 
    35    29    33   1 
    36    31    35   ar
    37    31    37   ar
    38    32    36   2 
    39    33    34   1 
    40    33    39   1 
    41    35    42   ar
    42    36    46   1 
    43    37    38   1 
    44    37    44   ar
    45    39    40   1 
    46    39    41   1 
    47    42    43   1 
    48    42    45   ar
    49    44    45   ar
    50    44    48   1 
    51    45    52   1 
    52    48    49   1 
    53    48    50   1 
    54    48    51   1 
    55    52    53   1 
    56    52    54   1 
    57    52    55   1 
#MOLECULE END
 
