inp11.mol2
     Hgene          

 31 33  0  0  0  0               V2000
   76.9150   57.2910   86.8930 C   0  0  0  0  0
   76.4710   56.0290   86.7450 C   0  0  0  0  0
   77.3970   54.8490   86.4960 C   0  0  0  0  0
   78.8980   55.1570   86.5760 C   0  0  0  0  0
   79.3460   56.4840   86.7390 C   0  0  0  0  0
   78.3870   57.6630   86.8300 C   0  0  0  0  0
   79.8600   54.1100   86.4920 N   0  0  0  0  0
   81.2280   54.4520   86.6430 C   0  0  0  0  0
   81.5750   55.8280   86.8010 C   0  0  0  0  0
   80.6460   56.8000   86.8380 N   0  0  0  0  0
   82.2000   53.5150   86.6440 N   0  0  0  0  0
   83.4760   53.9100   86.7830 C   0  0  0  0  0
   83.8990   55.1710   86.9280 N   0  0  0  0  0
   82.9540   56.1280   86.9360 C   0  0  0  0  0
   76.0230   58.5170   87.0790 C   0  0  0  0  0
   75.0050   55.6060   86.8300 C   0  0  0  0  0
   84.4110   52.9290   86.7910 O   0  0  0  0  0
   83.3880   57.4110   87.0980 O   0  0  0  0  0
   79.5060   52.6820   86.1380 C   0  0  0  0  0
   79.6800   51.6310   87.2800 C   0  0  0  0  0
   79.7530   52.0850   88.5450 O   0  0  0  0  0
   79.7030   50.0820   87.0820 C   0  0  0  0  0
   81.0850   49.6480   87.1000 O   0  0  0  0  0
   78.8930   49.3260   88.1600 C   0  0  0  0  0
   77.4600   49.7550   88.5050 C   0  0  0  0  0
   77.0330   50.7580   87.5600 O   0  0  0  0  0
   79.1860   48.0230   88.2930 O   0  0  0  0  0
   76.1570   50.3650   86.2650 P   0  0  2  0  0
   77.0140   49.3110   85.4080 O   0  0  0  0  0
   75.9490   51.6970   85.3970 O   0  0  0  0  0
   74.7580   49.7360   86.7210 O   0  0  0  0  0
  1  2  2  0
  1  6  1  0
  1 15  1  0
  2  3  1  0
  2 16  1  0
  3  4  1  0
  4  5  4  0
  4  7  4  0
  5  6  1  0
  5 10  4  0
  7  8  4  0
  7 19  1  0
  8  9  4  0
  8 11  4  0
  9 10  4  0
  9 14  4  0
 11 12  4  0
 12 13  4  0
 12 17  1  0
 13 14  4  0
 14 18  1  0
 19 20  1  0
 20 21  1  0
 20 22  1  0
 22 23  1  0
 22 24  1  0
 24 25  1  0
 24 27  1  0
 25 26  1  0
 26 28  1  0
 28 29  1  0
 28 30  1  0
 28 31  1  0
M  END
$$$$
