@<TRIPOS>COMMENT
   inp11.mol2              1    of   10
                  SCORE =  -272.0309
               dG-SCORE =    -6.2552
      LIGAND_EFFICIENCY =    -1.2365
  NUMBER_OF_HEAVY_ATOMS =         22
                    ASA =  -252.9625
                    ELE =     0.0000
                    HYD =   -15.4262
                    VDW =    -3.6422
                   RMSD =    28.5891
 MOLECULAR_WEIGHT = 332.29
@<TRIPOS>MOLECULE
inp11.mol2                                                                      
   43   44    0    0    0
SMALL       
GASTEIGER      
 
@<TRIPOS>ATOM
    1 P        92.8346   77.2838   78.7262 P.3      1 UNK          0.0000
    2 O        92.8111   81.7394   78.3732 O.3      1 UNK          0.0000
    3 O        93.2372   78.8067   78.3554 O.3      1 UNK          0.0000
    4 O        92.2657   76.2288   77.6698 O.3      1 UNK          0.0000
    5 H        92.3479   76.5961   76.7728 H        1 UNK          0.0000
    6 O        91.4717   77.8791   78.1937 O.3      1 UNK          0.0000
    7 H        91.6171   78.0673   77.2504 H        1 UNK          0.0000
    8 O        94.0030   77.0738   77.6512 O.3      1 UNK          0.0000
    9 H        94.1193   76.1192   77.4965 H        1 UNK          0.0000
   10 O        88.6327   81.9485   75.2929 O.2      1 UNK          0.0000
   11 N        91.8818   83.7746   77.5516 N.ar     1 UNK          0.0000
   12 N        87.4033   83.7819   75.3117 N.am     1 UNK          0.0000
   13 H        86.8158   83.3952   74.5938 H        1 UNK          0.0000
   14 H        87.1859   84.6891   75.6819 H        1 UNK          0.0000
   15 C        94.7590   82.2408   79.4793 C.3      1 UNK          0.0000
   16 H        95.8456   82.2086   79.3198 H        1 UNK          0.0000
   17 C        94.1143   83.5517   78.9543 C.3      1 UNK          0.0000
   18 H        93.5018   83.9739   79.7606 H        1 UNK          0.0000
   19 C        94.0565   81.1009   78.6783 C.3      1 UNK          0.0000
   20 H        94.6268   80.9272   77.7554 H        1 UNK          0.0000
   21 C        93.1333   83.0346   77.8409 C.3      1 UNK          0.0000
   22 H        93.6938   82.8965   76.9016 H        1 UNK          0.0000
   23 C        94.4892   82.2284   80.9795 C.3      1 UNK          0.0000
   24 H        95.0342   81.4087   81.4619 H        1 UNK          0.0000
   25 H        93.4097   82.1481   81.1243 H        1 UNK          0.0000
   26 H        94.8007   83.1590   81.4350 H        1 UNK          0.0000
   27 C        95.1663   84.6135   78.5269 C.3      1 UNK          0.0000
   28 H        95.8072   84.8928   79.3755 H        1 UNK          0.0000
   29 H        95.8285   84.2212   77.7449 H        1 UNK          0.0000
   30 H        94.6987   85.5332   78.1540 H        1 UNK          0.0000
   31 C        93.7527   79.7299   79.3431 C.3      1 UNK          0.0000
   32 H        94.6495   79.3230   79.8287 H        1 UNK          0.0000
   33 H        92.9851   79.8988   80.0893 H        1 UNK          0.0000
   34 C        90.7789   83.0859   76.8853 C.ar     1 UNK          0.0000
   35 H        90.9546   82.0432   76.6112 H        1 UNK          0.0000
   36 C        91.6728   85.1672   77.8454 C.ar     1 UNK          0.0000
   37 H        92.5176   85.7127   78.2882 H        1 UNK          0.0000
   38 C        89.5707   83.7537   76.5684 C.ar     1 UNK          0.0000
   39 C        90.4560   85.8291   77.5636 C.ar     1 UNK          0.0000
   40 H        90.3065   86.8826   77.7723 H        1 UNK          0.0000
   41 C        89.3759   85.1164   76.9450 C.ar     1 UNK          0.0000
   42 H        88.4602   85.6361   76.7371 H        1 UNK          0.0000
   43 C        88.5029   83.0761   75.7139 C.2      1 UNK          0.0000
@<TRIPOS>BOND
     1     1     3   1 
     2     1     4   1 
     3     1     6   1 
     4     1     8   1 
     5     2    19   1 
     6     2    21   1 
     7     3    31   1 
     8     4     5   1 
     9     6     7   1 
    10     8     9   1 
    11    10    43   2 
    12    11    21   1 
    13    11    34   ar
    14    11    36   ar
    15    12    13   1 
    16    12    14   1 
    17    12    43   am
    18    15    16   1 
    19    15    17   1 
    20    15    19   1 
    21    15    23   1 
    22    17    18   1 
    23    17    21   1 
    24    17    27   1 
    25    19    20   1 
    26    19    31   1 
    27    21    22   1 
    28    23    24   1 
    29    23    25   1 
    30    23    26   1 
    31    27    28   1 
    32    27    29   1 
    33    27    30   1 
    34    31    32   1 
    35    31    33   1 
    36    34    35   1 
    37    34    38   ar
    38    36    37   1 
    39    36    39   ar
    40    38    41   ar
    41    38    43   1 
    42    39    40   1 
    43    39    41   ar
    44    41    42   1 
 
