@<TRIPOS>COMMENT
   inp11.mol2              5    of   10
                  SCORE =  -254.5946
               dG-SCORE =    -5.6323
      LIGAND_EFFICIENCY =    -1.1572
  NUMBER_OF_HEAVY_ATOMS =         22
                    ASA =  -246.5999
                    ELE =     0.0000
                    HYD =    -4.2304
                    VDW =    -3.7643
                   RMSD =    29.8452
 MOLECULAR_WEIGHT = 332.29
@<TRIPOS>MOLECULE
inp11.mol2                                                                      
   43   44    0    0    0
SMALL       
GASTEIGER      
 
@<TRIPOS>ATOM
    1 P        89.5562   85.1383   76.5589 P.3      1 UNK          0.0000
    2 O        93.3572   83.8116   78.3284 O.3      1 UNK          0.0000
    3 O        90.7707   85.0607   77.6133 O.3      1 UNK          0.0000
    4 O        88.1634   84.4200   76.8582 O.3      1 UNK          0.0000
    5 H        88.2233   84.0304   77.7429 H        1 UNK          0.0000
    6 O        89.8813   83.5685   76.6571 O.3      1 UNK          0.0000
    7 H        89.8670   83.3108   77.5915 H        1 UNK          0.0000
    8 O        88.9761   86.0144   77.7778 O.3      1 UNK          0.0000
    9 H        88.2203   86.5328   77.4522 H        1 UNK          0.0000
   10 O        91.9711   79.0675   78.6024 O.2      1 UNK          0.0000
   11 N        94.8659   82.1306   79.1779 N.ar     1 UNK          0.0000
   12 N        93.3227   77.4720   78.0372 N.am     1 UNK          0.0000
   13 H        92.5252   76.8629   77.9151 H        1 UNK          0.0000
   14 H        94.2420   77.1510   77.8030 H        1 UNK          0.0000
   15 C        94.4807   85.8580   78.2971 C.3      1 UNK          0.0000
   16 H        94.5351   86.6926   79.0019 H        1 UNK          0.0000
   17 C        95.3944   84.6978   78.7531 C.3      1 UNK          0.0000
   18 H        95.9439   84.3221   77.8833 H        1 UNK          0.0000
   19 C        93.0746   85.2183   78.3866 C.3      1 UNK          0.0000
   20 H        92.6821   85.4097   79.3814 H        1 UNK          0.0000
   21 C        94.4232   83.5878   79.2611 C.3      1 UNK          0.0000
   22 H        94.0518   83.7656   80.2742 H        1 UNK          0.0000
   23 C        94.9648   86.3708   76.9197 C.3      1 UNK          0.0000
   24 H        94.3478   87.2065   76.5687 H        1 UNK          0.0000
   25 H        94.9282   85.5676   76.1730 H        1 UNK          0.0000
   26 H        96.0010   86.7251   76.9919 H        1 UNK          0.0000
   27 C        96.4053   85.2793   79.7497 C.3      1 UNK          0.0000
   28 H        97.0078   86.0756   79.3011 H        1 UNK          0.0000
   29 H        95.8541   85.7206   80.5845 H        1 UNK          0.0000
   30 H        97.0640   84.5013   80.1280 H        1 UNK          0.0000
   31 C        92.0416   85.6603   77.3141 C.3      1 UNK          0.0000
   32 H        91.9510   86.7548   77.2953 H        1 UNK          0.0000
   33 H        92.3851   85.3299   76.3274 H        1 UNK          0.0000
   34 C        93.8695   81.1229   79.0664 C.ar     1 UNK          0.0000
   35 H        92.8184   81.3990   79.1261 H        1 UNK          0.0000
   36 C        96.2428   81.7598   79.1288 C.ar     1 UNK          0.0000
   37 H        97.0087   82.5188   79.1828 H        1 UNK          0.0000
   38 C        94.2309   79.7344   78.7834 C.ar     1 UNK          0.0000
   39 C        96.6247   80.3739   78.9412 C.ar     1 UNK          0.0000
   40 H        97.6718   80.1059   78.9223 H        1 UNK          0.0000
   41 C        95.6186   79.4069   78.7298 C.ar     1 UNK          0.0000
   42 H        95.9288   78.3814   78.4870 H        1 UNK          0.0000
   43 C        93.1256   78.7619   78.4971 C.2      1 UNK          0.0000
@<TRIPOS>BOND
     1     1     3   1 
     2     1     4   1 
     3     1     6   1 
     4     1     8   1 
     5     2    19   1 
     6     2    21   1 
     7     3    31   1 
     8     4     5   1 
     9     6     7   1 
    10     8     9   1 
    11    10    43   2 
    12    11    21   1 
    13    11    34   ar
    14    11    36   ar
    15    12    13   1 
    16    12    14   1 
    17    12    43   am
    18    15    16   1 
    19    15    17   1 
    20    15    19   1 
    21    15    23   1 
    22    17    18   1 
    23    17    21   1 
    24    17    27   1 
    25    19    20   1 
    26    19    31   1 
    27    21    22   1 
    28    23    24   1 
    29    23    25   1 
    30    23    26   1 
    31    27    28   1 
    32    27    29   1 
    33    27    30   1 
    34    31    32   1 
    35    31    33   1 
    36    34    35   1 
    37    34    38   ar
    38    36    37   1 
    39    36    39   ar
    40    38    41   ar
    41    38    43   1 
    42    39    40   1 
    43    39    41   ar
    44    41    42   1 
 
