@<TRIPOS>COMMENT
   inp11.mol2             10    of   10
                  SCORE =  -226.8080
               dG-SCORE =    -4.9935
      LIGAND_EFFICIENCY =    -1.0309
  NUMBER_OF_HEAVY_ATOMS =         22
                    ASA =  -212.7359
                    ELE =     0.0000
                    HYD =   -10.1214
                    VDW =    -3.9507
                   RMSD =    29.2229
 MOLECULAR_WEIGHT = 332.29
@<TRIPOS>MOLECULE
inp11.mol2                                                                      
   43   44    0    0    0
SMALL       
GASTEIGER      
 
@<TRIPOS>ATOM
    1 P        92.6239   78.2147   78.4494 P.3      1 UNK          0.0000
    2 O        93.8945   82.3462   78.6799 O.3      1 UNK          0.0000
    3 O        93.6700   79.3981   78.2247 O.3      1 UNK          0.0000
    4 O        91.7945   77.6837   77.1905 O.3      1 UNK          0.0000
    5 H        92.0486   78.1782   76.3910 H        1 UNK          0.0000
    6 O        91.8037   79.5593   78.1436 O.3      1 UNK          0.0000
    7 H        92.1198   79.9204   77.2917 H        1 UNK          0.0000
    8 O        93.7047   77.6099   77.4372 O.3      1 UNK          0.0000
    9 H        93.4201   76.7252   77.1565 H        1 UNK          0.0000
   10 O        89.6708   84.3039   76.6759 O.2      1 UNK          0.0000
   11 N        93.7202   84.7316   78.2477 N.ar     1 UNK          0.0000
   12 N        89.0998   86.3985   77.0965 N.am     1 UNK          0.0000
   13 H        88.1819   86.2253   76.7053 H        1 UNK          0.0000
   14 H        89.3054   87.3059   77.4898 H        1 UNK          0.0000
   15 C        95.8874   82.0203   79.7770 C.3      1 UNK          0.0000
   16 H        96.8927   81.6699   79.5254 H        1 UNK          0.0000
   17 C        95.6537   83.5284   79.4642 C.3      1 UNK          0.0000
   18 H        95.1689   83.9692   80.3286 H        1 UNK          0.0000
   19 C        94.9060   81.3347   78.8233 C.3      1 UNK          0.0000
   20 H        95.4178   81.1687   77.8650 H        1 UNK          0.0000
   21 C        94.5982   83.5552   78.3372 C.3      1 UNK          0.0000
   22 H        95.1091   83.4248   77.3715 H        1 UNK          0.0000
   23 C        95.5396   81.6692   81.2465 C.3      1 UNK          0.0000
   24 H        95.5402   80.5836   81.3710 H        1 UNK          0.0000
   25 H        94.5509   82.0743   81.4708 H        1 UNK          0.0000
   26 H        96.2347   82.0861   81.9728 H        1 UNK          0.0000
   27 C        96.9229   84.3301   79.0814 C.3      1 UNK          0.0000
   28 H        97.6545   84.2482   79.8870 H        1 UNK          0.0000
   29 H        97.3960   83.9271   78.1781 H        1 UNK          0.0000
   30 H        96.7232   85.3973   78.9285 H        1 UNK          0.0000
   31 C        94.3035   80.0092   79.3348 C.3      1 UNK          0.0000
   32 H        95.0774   79.3440   79.7309 H        1 UNK          0.0000
   33 H        93.5693   80.2238   80.1164 H        1 UNK          0.0000
   34 C        92.3926   84.5597   77.6872 C.ar     1 UNK          0.0000
   35 H        92.1355   83.5415   77.3729 H        1 UNK          0.0000
   36 C        94.0933   86.0783   78.6360 C.ar     1 UNK          0.0000
   37 H        95.0708   86.2328   79.1162 H        1 UNK          0.0000
   38 C        91.4773   85.6213   77.5477 C.ar     1 UNK          0.0000
   39 C        93.2187   87.1563   78.4194 C.ar     1 UNK          0.0000
   40 H        93.4650   88.1734   78.7606 H        1 UNK          0.0000
   41 C        91.9055   86.9446   77.8651 C.ar     1 UNK          0.0000
   42 H        91.2188   87.7675   77.7571 H        1 UNK          0.0000
   43 C        90.0409   85.3937   77.0785 C.2      1 UNK          0.0000
@<TRIPOS>BOND
     1     1     3   1 
     2     1     4   1 
     3     1     6   1 
     4     1     8   1 
     5     2    19   1 
     6     2    21   1 
     7     3    31   1 
     8     4     5   1 
     9     6     7   1 
    10     8     9   1 
    11    10    43   2 
    12    11    21   1 
    13    11    34   ar
    14    11    36   ar
    15    12    13   1 
    16    12    14   1 
    17    12    43   am
    18    15    16   1 
    19    15    17   1 
    20    15    19   1 
    21    15    23   1 
    22    17    18   1 
    23    17    21   1 
    24    17    27   1 
    25    19    20   1 
    26    19    31   1 
    27    21    22   1 
    28    23    24   1 
    29    23    25   1 
    30    23    26   1 
    31    27    28   1 
    32    27    29   1 
    33    27    30   1 
    34    31    32   1 
    35    31    33   1 
    36    34    35   1 
    37    34    38   ar
    38    36    37   1 
    39    36    39   ar
    40    38    41   ar
    41    38    43   1 
    42    39    40   1 
    43    39    41   ar
    44    41    42   1 
 
