@<TRIPOS>COMMENT
   inp11.mol2              3    of   10
                  SCORE =  -230.7749
               dG-SCORE =    -5.4655
      LIGAND_EFFICIENCY =    -1.0490
  NUMBER_OF_HEAVY_ATOMS =         22
                    ASA =  -192.1111
                    ELE =     0.0000
                    HYD =   -34.7706
                    VDW =    -3.8931
                   RMSD =    52.0948
 MOLECULAR_WEIGHT = 332.29
@<TRIPOS>MOLECULE
inp11.mol2                                                                      
   43   44    0    0    0
SMALL       
GASTEIGER      
 
@<TRIPOS>ATOM
    1 P       -61.2463    0.9101  -61.4042 P.3      1 UNK          0.0000
    2 O       -63.0828   -2.0075  -58.7144 O.3      1 UNK          0.0000
    3 O       -61.9626   -0.4458  -60.9265 O.3      1 UNK          0.0000
    4 O       -59.6987    0.8908  -61.8304 O.3      1 UNK          0.0000
    5 H       -59.4055   -0.0188  -61.9478 H        1 UNK          0.0000
    6 O       -60.5990    0.5320  -59.9797 O.3      1 UNK          0.0000
    7 H       -60.4197   -0.4185  -59.9541 H        1 UNK          0.0000
    8 O       -61.1648   -0.0077  -62.7183 O.3      1 UNK          0.0000
    9 H       -60.7068    0.4833  -63.4201 H        1 UNK          0.0000
   10 O       -59.3002   -2.4987  -55.7075 O.2      1 UNK          0.0000
   11 N       -63.2376   -3.3920  -56.7373 N.ar     1 UNK          0.0000
   12 N       -59.3447   -3.0028  -53.6006 N.am     1 UNK          0.0000
   13 H       -58.4386   -2.5886  -53.5024 H        1 UNK          0.0000
   14 H       -59.7722   -3.4320  -52.8146 H        1 UNK          0.0000
   15 C       -65.2011   -2.0886  -59.6911 C.3      1 UNK          0.0000
   16 H       -65.6538   -2.5923  -60.5565 H        1 UNK          0.0000
   17 C       -65.1477   -3.0361  -58.4598 C.3      1 UNK          0.0000
   18 H       -65.6073   -2.5162  -57.6089 H        1 UNK          0.0000
   19 C       -63.6989   -1.8328  -59.9990 C.3      1 UNK          0.0000
   20 H       -63.3370   -2.6173  -60.6807 H        1 UNK          0.0000
   21 C       -63.6333   -3.2161  -58.1684 C.3      1 UNK          0.0000
   22 H       -63.2452   -4.0629  -58.7523 H        1 UNK          0.0000
   23 C       -66.0467   -0.8188  -59.3727 C.3      1 UNK          0.0000
   24 H       -66.1189   -0.1694  -60.2545 H        1 UNK          0.0000
   25 H       -65.5984   -0.2391  -58.5565 H        1 UNK          0.0000
   26 H       -67.0669   -1.0941  -59.0799 H        1 UNK          0.0000
   27 C       -65.8726   -4.3915  -58.6779 C.3      1 UNK          0.0000
   28 H       -66.9419   -4.2314  -58.8715 H        1 UNK          0.0000
   29 H       -65.4501   -4.9321  -59.5355 H        1 UNK          0.0000
   30 H       -65.7849   -5.0405  -57.7976 H        1 UNK          0.0000
   31 C       -63.3483   -0.4425  -60.5834 C.3      1 UNK          0.0000
   32 H       -63.9477   -0.2489  -61.4821 H        1 UNK          0.0000
   33 H       -63.5510    0.3400  -59.8408 H        1 UNK          0.0000
   34 C       -61.9066   -3.0810  -56.3673 C.ar     1 UNK          0.0000
   35 H       -61.2652   -2.6318  -57.1304 H        1 UNK          0.0000
   36 C       -64.1314   -3.8326  -55.6953 C.ar     1 UNK          0.0000
   37 H       -65.1674   -4.0427  -55.9426 H        1 UNK          0.0000
   38 C       -61.4060   -3.2971  -55.0483 C.ar     1 UNK          0.0000
   39 C       -63.6751   -3.9795  -54.3540 C.ar     1 UNK          0.0000
   40 H       -64.3747   -4.2348  -53.5645 H        1 UNK          0.0000
   41 C       -62.3113   -3.7898  -54.0493 C.ar     1 UNK          0.0000
   42 H       -61.9875   -3.9897  -53.0508 H        1 UNK          0.0000
   43 C       -59.9768   -2.9217  -54.8021 C.2      1 UNK          0.0000
@<TRIPOS>BOND
     1     1     3   1 
     2     1     4   1 
     3     1     6   1 
     4     1     8   1 
     5     2    19   1 
     6     2    21   1 
     7     3    31   1 
     8     4     5   1 
     9     6     7   1 
    10     8     9   1 
    11    10    43   2 
    12    11    21   1 
    13    11    34   ar
    14    11    36   ar
    15    12    13   1 
    16    12    14   1 
    17    12    43   am
    18    15    16   1 
    19    15    17   1 
    20    15    19   1 
    21    15    23   1 
    22    17    18   1 
    23    17    21   1 
    24    17    27   1 
    25    19    20   1 
    26    19    31   1 
    27    21    22   1 
    28    23    24   1 
    29    23    25   1 
    30    23    26   1 
    31    27    28   1 
    32    27    29   1 
    33    27    30   1 
    34    31    32   1 
    35    31    33   1 
    36    34    35   1 
    37    34    38   ar
    38    36    37   1 
    39    36    39   ar
    40    38    41   ar
    41    38    43   1 
    42    39    40   1 
    43    39    41   ar
    44    41    42   1 
 
