inp11.mol2
     Hgene          

 22 23  0  0  0  0               V2000
  -61.2463    0.9101  -61.4042 P   0  0  2  0  0
  -63.0828   -2.0075  -58.7144 O   0  0  0  0  0
  -61.9626   -0.4458  -60.9265 O   0  0  0  0  0
  -59.6987    0.8908  -61.8304 O   0  0  0  0  0
  -60.5990    0.5320  -59.9797 O   0  0  0  0  0
  -61.1648   -0.0077  -62.7183 O   0  0  0  0  0
  -59.3002   -2.4987  -55.7075 O   0  0  0  0  0
  -63.2376   -3.3920  -56.7373 N   0  0  0  0  0
  -59.3447   -3.0028  -53.6006 N   0  0  0  0  0
  -65.2011   -2.0886  -59.6911 C   0  0  0  0  0
  -65.1477   -3.0361  -58.4598 C   0  0  0  0  0
  -63.6989   -1.8328  -59.9990 C   0  0  0  0  0
  -63.6333   -3.2161  -58.1684 C   0  0  0  0  0
  -66.0467   -0.8188  -59.3727 C   0  0  0  0  0
  -65.8726   -4.3915  -58.6779 C   0  0  0  0  0
  -63.3483   -0.4425  -60.5834 C   0  0  0  0  0
  -61.9066   -3.0810  -56.3673 C   0  0  0  0  0
  -64.1314   -3.8326  -55.6953 C   0  0  0  0  0
  -61.4060   -3.2971  -55.0483 C   0  0  0  0  0
  -63.6751   -3.9795  -54.3540 C   0  0  0  0  0
  -62.3113   -3.7898  -54.0493 C   0  0  0  0  0
  -59.9768   -2.9217  -54.8021 C   0  0  0  0  0
  1  3  1  0
  1  4  1  0
  1  5  1  0
  1  6  1  0
  2 12  1  0
  2 13  1  0
  3 16  1  0
  7 22  2  0
  8 13  1  0
  8 17  4  0
  8 18  4  0
  9 22  1  0
 10 11  1  0
 10 12  1  0
 10 14  1  0
 11 13  1  0
 11 15  1  0
 12 16  1  0
 17 19  4  0
 18 20  4  0
 19 21  4  0
 19 22  1  0
 20 21  4  0
M  END
$$$$
