@<TRIPOS>COMMENT
   inp11.mol2              4    of   10
                  SCORE =  -228.1006
               dG-SCORE =    -5.4057
      LIGAND_EFFICIENCY =    -1.0368
  NUMBER_OF_HEAVY_ATOMS =         22
                    ASA =  -188.7245
                    ELE =     0.0000
                    HYD =   -35.4607
                    VDW =    -3.9153
                   RMSD =    53.5088
 MOLECULAR_WEIGHT = 332.29
@<TRIPOS>MOLECULE
inp11.mol2                                                                      
   43   44    0    0    0
SMALL       
GASTEIGER      
 
@<TRIPOS>ATOM
    1 P       -65.9881    6.0985  -60.7527 P.3      1 UNK          0.0000
    2 O       -63.3155    2.5919  -60.7576 O.3      1 UNK          0.0000
    3 O       -64.5819    5.3220  -60.5096 O.3      1 UNK          0.0000
    4 O       -66.8941    6.6401  -59.5614 O.3      1 UNK          0.0000
    5 H       -66.5144    6.3339  -58.7243 H        1 UNK          0.0000
    6 O       -66.5251    4.7379  -60.0774 O.3      1 UNK          0.0000
    7 H       -65.9800    4.5197  -59.3131 H        1 UNK          0.0000
    8 O       -65.1460    7.2643  -60.0943 O.3      1 UNK          0.0000
    9 H       -65.6117    8.0919  -60.2848 H        1 UNK          0.0000
   10 O       -66.2166    0.1111  -57.7738 O.2      1 UNK          0.0000
   11 N       -62.6448    0.4546  -60.1204 N.ar     1 UNK          0.0000
   12 N       -66.1693   -2.0842  -57.6198 N.am     1 UNK          0.0000
   13 H       -66.9910   -2.0519  -57.0257 H        1 UNK          0.0000
   14 H       -65.7589   -2.9726  -57.8609 H        1 UNK          0.0000
   15 C       -61.8794    3.2403  -62.4167 C.3      1 UNK          0.0000
   16 H       -61.0195    3.9049  -62.5223 H        1 UNK          0.0000
   17 C       -61.4665    1.8568  -61.9188 C.3      1 UNK          0.0000
   18 H       -61.9390    1.1222  -62.5783 H        1 UNK          0.0000
   19 C       -62.7833    3.7750  -61.2860 C.3      1 UNK          0.0000
   20 H       -62.1626    4.2286  -60.5177 H        1 UNK          0.0000
   21 C       -62.1692    1.7737  -60.5181 C.3      1 UNK          0.0000
   22 H       -61.5749    2.2283  -59.7105 H        1 UNK          0.0000
   23 C       -62.5447    2.9664  -63.7745 C.3      1 UNK          0.0000
   24 H       -62.9802    3.8813  -64.1815 H        1 UNK          0.0000
   25 H       -63.2912    2.1793  -63.6979 H        1 UNK          0.0000
   26 H       -61.7919    2.5901  -64.4578 H        1 UNK          0.0000
   27 C       -59.9457    1.6224  -61.9969 C.3      1 UNK          0.0000
   28 H       -59.5455    1.7771  -63.0081 H        1 UNK          0.0000
   29 H       -59.4418    2.3433  -61.3433 H        1 UNK          0.0000
   30 H       -59.6598    0.6285  -61.6538 H        1 UNK          0.0000
   31 C       -63.8763    4.7799  -61.6570 C.3      1 UNK          0.0000
   32 H       -63.4623    5.5740  -62.2682 H        1 UNK          0.0000
   33 H       -64.5880    4.2567  -62.2978 H        1 UNK          0.0000
   34 C       -63.8367    0.3457  -59.3133 C.ar     1 UNK          0.0000
   35 H       -64.3248    1.2890  -59.0738 H        1 UNK          0.0000
   36 C       -62.0513   -0.7612  -60.5636 C.ar     1 UNK          0.0000
   37 H       -61.2172   -0.6570  -61.2701 H        1 UNK          0.0000
   38 C       -64.3601   -0.9018  -58.9260 C.ar     1 UNK          0.0000
   39 C       -62.5343   -2.0249  -60.1748 C.ar     1 UNK          0.0000
   40 H       -62.0586   -2.9391  -60.5183 H        1 UNK          0.0000
   41 C       -63.7036   -2.1132  -59.3312 C.ar     1 UNK          0.0000
   42 H       -64.0659   -3.0835  -59.0472 H        1 UNK          0.0000
   43 C       -65.6360   -0.9143  -58.0773 C.2      1 UNK          0.0000
@<TRIPOS>BOND
     1     1     3   1 
     2     1     4   1 
     3     1     6   1 
     4     1     8   1 
     5     2    19   1 
     6     2    21   1 
     7     3    31   1 
     8     4     5   1 
     9     6     7   1 
    10     8     9   1 
    11    10    43   2 
    12    11    21   1 
    13    11    34   ar
    14    11    36   ar
    15    12    13   1 
    16    12    14   1 
    17    12    43   am
    18    15    16   1 
    19    15    17   1 
    20    15    19   1 
    21    15    23   1 
    22    17    18   1 
    23    17    21   1 
    24    17    27   1 
    25    19    20   1 
    26    19    31   1 
    27    21    22   1 
    28    23    24   1 
    29    23    25   1 
    30    23    26   1 
    31    27    28   1 
    32    27    29   1 
    33    27    30   1 
    34    31    32   1 
    35    31    33   1 
    36    34    35   1 
    37    34    38   ar
    38    36    37   1 
    39    36    39   ar
    40    38    41   ar
    41    38    43   1 
    42    39    40   1 
    43    39    41   ar
    44    41    42   1 
 
