inp11.mol2
     Hgene          

 22 23  0  0  0  0               V2000
  -62.2909    3.3807  -61.1011 P   0  0  2  0  0
  -61.4231   -0.7333  -61.8259 O   0  0  0  0  0
  -62.5651    1.8337  -61.4408 O   0  0  0  0  0
  -62.7087    4.3515  -62.3008 O   0  0  0  0  0
  -61.2209    3.1139  -62.2475 O   0  0  0  0  0
  -63.8555    3.4190  -61.2436 O   0  0  0  0  0
  -57.3449    0.7504  -64.4469 O   0  0  0  0  0
  -59.8621   -2.3945  -62.7202 N   0  0  0  0  0
  -55.4394   -0.3467  -64.2315 N   0  0  0  0  0
  -62.8596   -1.8454  -60.3486 C   0  0  0  0  0
  -61.9044   -2.8606  -61.0365 C   0  0  0  0  0
  -62.7075   -0.5511  -61.1968 C   0  0  0  0  0
  -61.2866   -2.1021  -62.2956 C   0  0  0  0  0
  -62.5446   -1.6747  -58.8326 C   0  0  0  0  0
  -62.5616   -4.2027  -61.4077 C   0  0  0  0  0
  -62.7911    0.8190  -60.4548 C   0  0  0  0  0
  -59.0443   -1.3340  -63.3523 C   0  0  0  0  0
  -59.1429   -3.6220  -62.3871 C   0  0  0  0  0
  -57.6230   -1.4379  -63.4607 C   0  0  0  0  0
  -57.7292   -3.7136  -62.4586 C   0  0  0  0  0
  -56.9565   -2.6186  -62.9912 C   0  0  0  0  0
  -56.8071   -0.2720  -64.0680 C   0  0  0  0  0
  1  3  1  0
  1  4  1  0
  1  5  1  0
  1  6  1  0
  2 12  1  0
  2 13  1  0
  3 16  1  0
  7 22  2  0
  8 13  1  0
  8 17  4  0
  8 18  4  0
  9 22  1  0
 10 11  1  0
 10 12  1  0
 10 14  1  0
 11 13  1  0
 11 15  1  0
 12 16  1  0
 17 19  4  0
 18 20  4  0
 19 21  4  0
 19 22  1  0
 20 21  4  0
M  END
$$$$
