inp11.mol2
     Hgene          

 22 23  0  0  0  0               V2000
  -57.0450   -3.8623  -62.2725 P   0  0  2  0  0
  -61.2037   -2.9539  -60.6458 O   0  0  0  0  0
  -58.4593   -4.2434  -61.5328 O   0  0  0  0  0
  -55.8107   -3.2209  -61.4580 O   0  0  0  0  0
  -57.4536   -2.3535  -61.9812 O   0  0  0  0  0
  -56.5497   -4.8267  -61.1184 O   0  0  0  0  0
  -60.1208    1.3747  -58.0680 O   0  0  0  0  0
  -62.8381   -1.4410  -59.6302 N   0  0  0  0  0
  -61.3174    3.1367  -58.1307 N   0  0  0  0  0
  -62.3977   -4.6126  -61.6692 C   0  0  0  0  0
  -63.3316   -3.7091  -60.8039 C   0  0  0  0  0
  -60.9739   -4.2849  -61.1703 C   0  0  0  0  0
  -62.4140   -2.8491  -59.8825 C   0  0  0  0  0
  -62.6251   -4.3551  -63.1826 C   0  0  0  0  0
  -64.3712   -4.4883  -59.9730 C   0  0  0  0  0
  -59.7650   -4.3227  -62.1854 C   0  0  0  0  0
  -61.8746   -0.4587  -59.1785 C   0  0  0  0  0
  -64.1884   -0.9384  -59.7804 C   0  0  0  0  0
  -62.2055    0.8962  -58.9754 C   0  0  0  0  0
  -64.5221    0.4223  -59.6102 C   0  0  0  0  0
  -63.5056    1.3763  -59.2705 C   0  0  0  0  0
  -61.1708    1.8131  -58.3669 C   0  0  0  0  0
  1  3  1  0
  1  4  1  0
  1  5  1  0
  1  6  1  0
  2 12  1  0
  2 13  1  0
  3 16  1  0
  7 22  2  0
  8 13  1  0
  8 17  4  0
  8 18  4  0
  9 22  1  0
 10 11  1  0
 10 12  1  0
 10 14  1  0
 11 13  1  0
 11 15  1  0
 12 16  1  0
 17 19  4  0
 18 20  4  0
 19 21  4  0
 19 22  1  0
 20 21  4  0
M  END
$$$$
