inp11.mol2
     Hgene          

 22 23  0  0  0  0               V2000
  -61.3464   -4.1880  -55.3765 P   0  0  2  0  0
  -62.8808   -1.7714  -58.7418 O   0  0  0  0  0
  -62.3861   -3.3031  -56.2355 O   0  0  0  0  0
  -61.0909   -3.9097  -53.8470 O   0  0  0  0  0
  -60.6620   -2.7452  -55.3426 O   0  0  0  0  0
  -62.7245   -4.5502  -54.6452 O   0  0  0  0  0
  -61.2284    2.3828  -57.0701 O   0  0  0  0  0
  -63.1661    0.1471  -60.0649 N   0  0  0  0  0
  -60.6043    4.0465  -58.2537 N   0  0  0  0  0
  -63.7396   -3.5716  -59.9111 C   0  0  0  0  0
  -63.9878   -2.2528  -60.6929 C   0  0  0  0  0
  -63.5075   -3.0108  -58.4709 C   0  0  0  0  0
  -63.7809   -1.1319  -59.6356 C   0  0  0  0  0
  -62.6070   -4.3857  -60.6205 C   0  0  0  0  0
  -65.3852   -2.1911  -61.3554 C   0  0  0  0  0
  -62.5418   -3.7586  -57.5809 C   0  0  0  0  0
  -62.4936    0.9144  -59.0765 C   0  0  0  0  0
  -63.1828    0.6369  -61.4068 C   0  0  0  0  0
  -61.8942    2.1662  -59.3516 C   0  0  0  0  0
  -62.5536    1.8716  -61.7344 C   0  0  0  0  0
  -61.9360    2.6374  -60.7122 C   0  0  0  0  0
  -61.2459    2.8507  -58.1653 C   0  0  0  0  0
  1  3  1  0
  1  4  1  0
  1  5  1  0
  1  6  1  0
  2 12  1  0
  2 13  1  0
  3 16  1  0
  7 22  2  0
  8 13  1  0
  8 17  4  0
  8 18  4  0
  9 22  1  0
 10 11  1  0
 10 12  1  0
 10 14  1  0
 11 13  1  0
 11 15  1  0
 12 16  1  0
 17 19  4  0
 18 20  4  0
 19 21  4  0
 19 22  1  0
 20 21  4  0
M  END
$$$$
