inp11.mol2
     Hgene          

 22 23  0  0  0  0               V2000
  -62.1375   -4.3871  -54.8785 P   0  0  2  0  0
  -63.5226   -1.9434  -58.2829 O   0  0  0  0  0
  -63.1230   -3.5415  -55.8109 O   0  0  0  0  0
  -62.0858   -3.9490  -53.3624 O   0  0  0  0  0
  -61.3937   -2.9825  -55.0382 O   0  0  0  0  0
  -63.5750   -4.5827  -54.2150 O   0  0  0  0  0
  -61.0976    2.0908  -56.9571 O   0  0  0  0  0
  -63.6713    0.0234  -59.6316 N   0  0  0  0  0
  -60.8544    3.8347  -58.0912 N   0  0  0  0  0
  -64.4309   -3.6889  -59.4565 C   0  0  0  0  0
  -64.6571   -2.3437  -60.2149 C   0  0  0  0  0
  -64.1730   -3.1823  -58.0097 C   0  0  0  0  0
  -64.3831   -1.2369  -59.1684 C   0  0  0  0  0
  -63.3043   -4.5143  -60.1607 C   0  0  0  0  0
  -66.0673   -2.2502  -60.8546 C   0  0  0  0  0
  -63.2204   -4.0048  -57.1437 C   0  0  0  0  0
  -62.8544    0.7048  -58.7129 C   0  0  0  0  0
  -63.7683    0.5227  -60.9554 C   0  0  0  0  0
  -62.1711    1.9361  -59.0474 C   0  0  0  0  0
  -63.0761    1.7468  -61.3256 C   0  0  0  0  0
  -62.3409    2.4496  -60.3577 C   0  0  0  0  0
  -61.3553    2.5859  -57.9916 C   0  0  0  0  0
  1  3  1  0
  1  4  1  0
  1  5  1  0
  1  6  1  0
  2 12  1  0
  2 13  1  0
  3 16  1  0
  7 22  2  0
  8 13  1  0
  8 17  4  0
  8 18  4  0
  9 22  1  0
 10 11  1  0
 10 12  1  0
 10 14  1  0
 11 13  1  0
 11 15  1  0
 12 16  1  0
 17 19  4  0
 18 20  4  0
 19 21  4  0
 19 22  1  0
 20 21  4  0
M  END
$$$$
