@<TRIPOS>COMMENT
   inp11.mol2              9    of   10
                  SCORE =  -217.2715
               dG-SCORE =    -5.1946
      LIGAND_EFFICIENCY =    -0.9876
  NUMBER_OF_HEAVY_ATOMS =         22
                    ASA =  -173.3152
                    ELE =     0.0000
                    HYD =   -40.0867
                    VDW =    -3.8695
                   RMSD =    51.8545
 MOLECULAR_WEIGHT = 332.29
@<TRIPOS>MOLECULE
inp11.mol2                                                                      
   43   44    0    0    0
SMALL       
GASTEIGER      
 
@<TRIPOS>ATOM
    1 P       -62.1375   -4.3871  -54.8785 P.3      1 UNK          0.0000
    2 O       -63.5226   -1.9434  -58.2829 O.3      1 UNK          0.0000
    3 O       -63.1230   -3.5415  -55.8109 O.3      1 UNK          0.0000
    4 O       -62.0858   -3.9490  -53.3624 O.3      1 UNK          0.0000
    5 H       -62.7221   -3.2172  -53.2505 H        1 UNK          0.0000
    6 O       -61.3937   -2.9825  -55.0382 O.3      1 UNK          0.0000
    7 H       -62.0711   -2.2840  -54.9851 H        1 UNK          0.0000
    8 O       -63.5750   -4.5827  -54.2150 O.3      1 UNK          0.0000
    9 H       -63.4427   -5.0121  -53.3615 H        1 UNK          0.0000
   10 O       -61.0976    2.0908  -56.9571 O.2      1 UNK          0.0000
   11 N       -63.6713    0.0234  -59.6316 N.ar     1 UNK          0.0000
   12 N       -60.8544    3.8347  -58.0912 N.am     1 UNK          0.0000
   13 H       -60.2712    4.1859  -57.3555 H        1 UNK          0.0000
   14 H       -61.0796    4.3903  -58.8891 H        1 UNK          0.0000
   15 C       -64.4309   -3.6889  -59.4565 C.3      1 UNK          0.0000
   16 H       -65.3418   -4.3018  -59.4503 H        1 UNK          0.0000
   17 C       -64.6571   -2.3437  -60.2149 C.3      1 UNK          0.0000
   18 H       -63.8989   -2.2714  -61.0034 H        1 UNK          0.0000
   19 C       -64.1730   -3.1823  -58.0097 C.3      1 UNK          0.0000
   20 H       -65.1237   -3.0243  -57.4821 H        1 UNK          0.0000
   21 C       -64.3831   -1.2369  -59.1684 C.3      1 UNK          0.0000
   22 H       -65.3038   -0.9550  -58.6350 H        1 UNK          0.0000
   23 C       -63.3043   -4.5143  -60.1607 C.3      1 UNK          0.0000
   24 H       -63.2245   -5.5304  -59.7474 H        1 UNK          0.0000
   25 H       -62.3286   -4.0143  -60.0827 H        1 UNK          0.0000
   26 H       -63.5329   -4.6337  -61.2257 H        1 UNK          0.0000
   27 C       -66.0673   -2.2502  -60.8546 C.3      1 UNK          0.0000
   28 H       -66.1935   -3.0362  -61.6100 H        1 UNK          0.0000
   29 H       -66.8521   -2.3799  -60.0976 H        1 UNK          0.0000
   30 H       -66.2234   -1.2812  -61.3438 H        1 UNK          0.0000
   31 C       -63.2204   -4.0048  -57.1437 C.3      1 UNK          0.0000
   32 H       -63.5436   -5.0527  -57.1169 H        1 UNK          0.0000
   33 H       -62.2340   -3.8950  -57.5892 H        1 UNK          0.0000
   34 C       -62.8544    0.7048  -58.7129 C.ar     1 UNK          0.0000
   35 H       -62.7403    0.2999  -57.7173 H        1 UNK          0.0000
   36 C       -63.7683    0.5227  -60.9554 C.ar     1 UNK          0.0000
   37 H       -64.3541   -0.0124  -61.6867 H        1 UNK          0.0000
   38 C       -62.1711    1.9361  -59.0474 C.ar     1 UNK          0.0000
   39 C       -63.0761    1.7468  -61.3256 C.ar     1 UNK          0.0000
   40 H       -63.1364    2.1128  -62.3390 H        1 UNK          0.0000
   41 C       -62.3409    2.4496  -60.3577 C.ar     1 UNK          0.0000
   42 H       -61.8905    3.4041  -60.6369 H        1 UNK          0.0000
   43 C       -61.3553    2.5859  -57.9916 C.2      1 UNK          0.0000
@<TRIPOS>BOND
     1     1     3   1 
     2     1     4   1 
     3     1     6   1 
     4     1     8   1 
     5     2    19   1 
     6     2    21   1 
     7     3    31   1 
     8     4     5   1 
     9     6     7   1 
    10     8     9   1 
    11    10    43   2 
    12    11    21   1 
    13    11    34   ar
    14    11    36   ar
    15    12    13   1 
    16    12    14   1 
    17    12    43   am
    18    15    16   1 
    19    15    17   1 
    20    15    19   1 
    21    15    23   1 
    22    17    18   1 
    23    17    21   1 
    24    17    27   1 
    25    19    20   1 
    26    19    31   1 
    27    21    22   1 
    28    23    24   1 
    29    23    25   1 
    30    23    26   1 
    31    27    28   1 
    32    27    29   1 
    33    27    30   1 
    34    31    32   1 
    35    31    33   1 
    36    34    35   1 
    37    34    38   ar
    38    36    37   1 
    39    36    39   ar
    40    38    41   ar
    41    38    43   1 
    42    39    40   1 
    43    39    41   ar
    44    41    42   1 
 
