@<TRIPOS>COMMENT
   inp11.mol2             10    of   10
                  SCORE =  -205.3561
               dG-SCORE =    -4.8993
      LIGAND_EFFICIENCY =    -0.9334
  NUMBER_OF_HEAVY_ATOMS =         22
                    ASA =  -160.1118
                    ELE =     0.0000
                    HYD =   -41.2528
                    VDW =    -3.9914
                   RMSD =    54.1148
 MOLECULAR_WEIGHT = 332.29
@<TRIPOS>MOLECULE
inp11.mol2                                                                      
   43   44    0    0    0
SMALL       
GASTEIGER      
 
@<TRIPOS>ATOM
    1 P       -61.6133    1.6380  -57.7519 P.3      1 UNK          0.0000
    2 O       -60.6249   -0.1722  -61.6058 O.3      1 UNK          0.0000
    3 O       -61.5408    1.0523  -59.2265 O.3      1 UNK          0.0000
    4 O       -61.1388    3.1446  -57.6114 O.3      1 UNK          0.0000
    5 H       -61.4121    3.6355  -58.4006 H        1 UNK          0.0000
    6 O       -60.1280    1.6707  -58.1347 O.3      1 UNK          0.0000
    7 H       -60.1023    2.2111  -58.9437 H        1 UNK          0.0000
    8 O       -62.7087    2.3334  -58.6481 O.3      1 UNK          0.0000
    9 H       -63.1901    2.9429  -58.0671 H        1 UNK          0.0000
   10 O       -56.0763    1.6512  -61.7635 O.2      1 UNK          0.0000
   11 N       -58.9502   -1.0318  -63.2177 N.ar     1 UNK          0.0000
   12 N       -54.3076    0.7601  -62.7893 N.am     1 UNK          0.0000
   13 H       -53.6942    1.4439  -62.3957 H        1 UNK          0.0000
   14 H       -53.9287    0.0416  -63.3832 H        1 UNK          0.0000
   15 C       -62.1820   -2.0038  -61.3935 C.3      1 UNK          0.0000
   16 H       -63.2203   -2.0573  -61.7402 H        1 UNK          0.0000
   17 C       -61.1933   -2.2422  -62.5787 C.3      1 UNK          0.0000
   18 H       -60.4846   -3.0261  -62.2679 H        1 UNK          0.0000
   19 C       -61.8974   -0.5297  -60.9899 C.3      1 UNK          0.0000
   20 H       -62.6675    0.1036  -61.4470 H        1 UNK          0.0000
   21 C       -60.4280   -0.8901  -62.8541 C.3      1 UNK          0.0000
   22 H       -60.9249   -0.3232  -63.6508 H        1 UNK          0.0000
   23 C       -62.0351   -3.0612  -60.2432 C.3      1 UNK          0.0000
   24 H       -62.7970   -2.9094  -59.4671 H        1 UNK          0.0000
   25 H       -61.0711   -2.9660  -59.7472 H        1 UNK          0.0000
   26 H       -62.1331   -4.0895  -60.6102 H        1 UNK          0.0000
   27 C       -61.8676   -2.7633  -63.8568 C.3      1 UNK          0.0000
   28 H       -62.3938   -3.7047  -63.6536 H        1 UNK          0.0000
   29 H       -62.5879   -2.0293  -64.2363 H        1 UNK          0.0000
   30 H       -61.1200   -2.9496  -64.6368 H        1 UNK          0.0000
   31 C       -61.9252   -0.2869  -59.4551 C.3      1 UNK          0.0000
   32 H       -62.9429   -0.4395  -59.0749 H        1 UNK          0.0000
   33 H       -61.2486   -0.9523  -58.9117 H        1 UNK          0.0000
   34 C       -58.0293    0.0319  -62.9418 C.ar     1 UNK          0.0000
   35 H       -58.4221    0.9743  -62.5478 H        1 UNK          0.0000
   36 C       -58.3805   -2.2691  -63.7192 C.ar     1 UNK          0.0000
   37 H       -59.0388   -3.1125  -63.9117 H        1 UNK          0.0000
   38 C       -56.6073   -0.1652  -63.0716 C.ar     1 UNK          0.0000
   39 C       -56.9694   -2.4272  -63.9200 C.ar     1 UNK          0.0000
   40 H       -56.5643   -3.3665  -64.2865 H        1 UNK          0.0000
   41 C       -56.0848   -1.3708  -63.6076 C.ar     1 UNK          0.0000
   42 H       -55.0085   -1.4977  -63.7228 H        1 UNK          0.0000
   43 C       -55.6591    0.8242  -62.5188 C.2      1 UNK          0.0000
@<TRIPOS>BOND
     1     1     3   1 
     2     1     4   1 
     3     1     6   1 
     4     1     8   1 
     5     2    19   1 
     6     2    21   1 
     7     3    31   1 
     8     4     5   1 
     9     6     7   1 
    10     8     9   1 
    11    10    43   2 
    12    11    21   1 
    13    11    34   ar
    14    11    36   ar
    15    12    13   1 
    16    12    14   1 
    17    12    43   am
    18    15    16   1 
    19    15    17   1 
    20    15    19   1 
    21    15    23   1 
    22    17    18   1 
    23    17    21   1 
    24    17    27   1 
    25    19    20   1 
    26    19    31   1 
    27    21    22   1 
    28    23    24   1 
    29    23    25   1 
    30    23    26   1 
    31    27    28   1 
    32    27    29   1 
    33    27    30   1 
    34    31    32   1 
    35    31    33   1 
    36    34    35   1 
    37    34    38   ar
    38    36    37   1 
    39    36    39   ar
    40    38    41   ar
    41    38    43   1 
    42    39    40   1 
    43    39    41   ar
    44    41    42   1 
 
