inp11.mol2
     Hgene          

 31 33  0  0  0  0               V2000
   91.4805   79.2259   72.3818 C   0  0  0  0  0
   92.2121   78.1206   72.1480 C   0  0  0  0  0
   93.0924   77.4712   73.2040 C   0  0  0  0  0
   92.9812   78.0644   74.6147 C   0  0  0  0  0
   92.2041   79.2184   74.8438 C   0  0  0  0  0
   91.4576   79.9339   73.7262 C   0  0  0  0  0
   93.6552   77.4578   75.7131 N   0  0  0  0  0
   93.4557   78.0131   77.0027 C   0  0  0  0  0
   92.6505   79.1860   77.1246 C   0  0  0  0  0
   92.0574   79.7597   76.0624 N   0  0  0  0  0
   94.0017   77.4616   78.1074 N   0  0  0  0  0
   93.7788   78.0446   79.2965 C   0  0  0  0  0
   93.0487   79.1453   79.5097 N   0  0  0  0  0
   92.4869   79.7162   78.4292 C   0  0  0  0  0
   90.6336   79.9525   71.3386 C   0  0  0  0  0
   92.2423   77.3605   70.8226 C   0  0  0  0  0
   94.3383   77.4435   80.3745 O   0  0  0  0  0
   91.7318   80.8301   78.6524 O   0  0  0  0  0
   94.6545   76.3324   75.5566 C   0  0  0  0  0
   94.2173   74.9454   76.1259 C   0  0  0  0  0
   92.9060   74.7460   76.3548 O   0  0  0  0  0
   95.1722   73.7368   76.3844 C   0  0  0  0  0
   95.4803   73.7034   77.7995 O   0  0  0  0  0
   94.5666   72.3861   75.9389 C   0  0  0  0  0
   93.9451   72.2303   74.5439 C   0  0  0  0  0
   94.2182   73.4207   73.7759 O   0  0  0  0  0
   95.1330   71.2949   76.4772 O   0  0  0  0  0
   95.4639   73.4873   72.7548 P   0  0  2  0  0
   96.7979   73.2160   73.6072 O   0  0  0  0  0
   95.5210   74.9731   72.1547 O   0  0  0  0  0
   95.2844   72.3936   71.6005 O   0  0  0  0  0
  1  2  2  0
  1  6  1  0
  1 15  1  0
  2  3  1  0
  2 16  1  0
  3  4  1  0
  4  5  4  0
  4  7  4  0
  5  6  1  0
  5 10  4  0
  7  8  4  0
  7 19  1  0
  8  9  4  0
  8 11  4  0
  9 10  4  0
  9 14  4  0
 11 12  4  0
 12 13  4  0
 12 17  1  0
 13 14  4  0
 14 18  1  0
 19 20  1  0
 20 21  1  0
 20 22  1  0
 22 23  1  0
 22 24  1  0
 24 25  1  0
 24 27  1  0
 25 26  1  0
 26 28  1  0
 28 29  1  0
 28 30  1  0
 28 31  1  0
M  END
$$$$
