inp11.mol2
     Hgene          

 31 33  0  0  0  0               V2000
   93.1435   81.2666   79.3947 C   0  0  0  0  0
   93.4949   79.9635   79.4706 C   0  0  0  0  0
   93.0663   78.8777   78.4726 C   0  0  0  0  0
   92.4750   79.4308   77.1889 C   0  0  0  0  0
   92.1417   80.8348   77.0598 C   0  0  0  0  0
   92.3410   81.8212   78.2310 C   0  0  0  0  0
   92.2586   78.5656   76.0249 N   0  0  0  0  0
   91.7729   79.1862   74.8150 C   0  0  0  0  0
   91.4312   80.6280   74.8207 C   0  0  0  0  0
   91.6450   81.3997   75.9508 N   0  0  0  0  0
   91.6003   78.4929   73.6120 N   0  0  0  0  0
   91.0310   79.1165   72.5393 C   0  0  0  0  0
   90.6416   80.4285   72.4950 N   0  0  0  0  0
   90.8661   81.1971   73.6286 C   0  0  0  0  0
   93.6468   82.3416   80.3754 C   0  0  0  0  0
   94.4703   79.3682   80.4051 C   0  0  0  0  0
   90.8506   78.3518   71.4274 O   0  0  0  0  0
   90.5227   82.5154   73.5329 O   0  0  0  0  0
   92.5357   77.0817   76.1383 C   0  0  0  0  0
   93.6904   76.4962   75.2510 C   0  0  0  0  0
   94.6483   77.3461   74.8419 O   0  0  0  0  0
   93.8008   75.0229   74.7331 C   0  0  0  0  0
   93.4700   75.0957   73.3320 O   0  0  0  0  0
   95.1659   74.3109   74.9735 C   0  0  0  0  0
   96.0303   74.5982   76.2086 C   0  0  0  0  0
   95.1479   74.9526   77.2867 O   0  0  0  0  0
   95.5635   73.3433   74.1271 O   0  0  0  0  0
   94.2565   73.8887   78.1228 P   0  0  2  0  0
   93.4712   72.8864   77.1701 O   0  0  0  0  0
   93.0941   74.7402   78.8243 O   0  0  0  0  0
   95.2000   73.0270   79.1012 O   0  0  0  0  0
  1  2  2  0
  1  6  1  0
  1 15  1  0
  2  3  1  0
  2 16  1  0
  3  4  1  0
  4  5  4  0
  4  7  4  0
  5  6  1  0
  5 10  4  0
  7  8  4  0
  7 19  1  0
  8  9  4  0
  8 11  4  0
  9 10  4  0
  9 14  4  0
 11 12  4  0
 12 13  4  0
 12 17  1  0
 13 14  4  0
 14 18  1  0
 19 20  1  0
 20 21  1  0
 20 22  1  0
 22 23  1  0
 22 24  1  0
 24 25  1  0
 24 27  1  0
 25 26  1  0
 26 28  1  0
 28 29  1  0
 28 30  1  0
 28 31  1  0
M  END
$$$$
