@<TRIPOS>COMMENT
   inp11.mol2              6    of   10
                  SCORE =  -281.8015
               dG-SCORE =    -7.1820
      LIGAND_EFFICIENCY =    -0.9090
  NUMBER_OF_HEAVY_ATOMS =         31
                    ASA =  -155.0517
                    ELE =     0.0000
                    HYD =  -126.7498
                    VDW =     0.0000
                   RMSD =    30.9795
 MOLECULAR_WEIGHT = 458.36
@<TRIPOS>MOLECULE
inp11.mol2                                                                      
   54   56    0    0    0
SMALL       
GASTEIGER      
 
@<TRIPOS>ATOM
    1 C        94.1738   72.7020   75.9378 C.2      1 UNK          0.0000
    2 C        93.5386   73.8792   75.7882 C.2      1 UNK          0.0000
    3 C        93.8620   74.8590   74.6713 C.3      1 UNK          0.0000
    4 H        92.9254   75.1334   74.1708 H        1 UNK          0.0000
    5 H        94.2455   75.7768   75.1364 H        1 UNK          0.0000
    6 C        94.8603   74.3577   73.6195 C.ar     1 UNK          0.0000
    7 C        95.5114   73.1184   73.7878 C.ar     1 UNK          0.0000
    8 C        95.2757   72.2319   75.0030 C.3      1 UNK          0.0000
    9 H        96.2114   72.1346   75.5703 H        1 UNK          0.0000
   10 H        95.0352   71.2150   74.6619 H        1 UNK          0.0000
   11 N        95.1410   75.1317   72.4573 N.ar     1 UNK          0.0000
   12 C        96.0194   74.5812   71.4895 C.ar     1 UNK          0.0000
   13 C        96.6284   73.3182   71.7592 C.ar     1 UNK          0.0000
   14 N        96.3735   72.6273   72.8848 N.ar     1 UNK          0.0000
   15 N        96.2878   75.2164   70.3288 N.ar     1 UNK          0.0000
   16 C        97.1360   74.6416   69.4606 C.ar     1 UNK          0.0000
   17 N        97.7598   73.4697   69.6272 N.ar     1 UNK          0.0000
   18 C        97.5094   72.8095   70.7719 C.ar     1 UNK          0.0000
   19 C        93.9318   71.7150   77.0782 C.3      1 UNK          0.0000
   20 H        94.8833   71.3242   77.4616 H        1 UNK          0.0000
   21 H        93.4211   72.1571   77.9408 H        1 UNK          0.0000
   22 H        93.3481   70.8513   76.7332 H        1 UNK          0.0000
   23 C        92.4067   74.3782   76.6856 C.3      1 UNK          0.0000
   24 H        91.5850   74.7934   76.0872 H        1 UNK          0.0000
   25 H        91.9584   73.5907   77.3011 H        1 UNK          0.0000
   26 H        92.7578   75.1770   77.3500 H        1 UNK          0.0000
   27 O        97.3604   75.3140   68.3055 O.3      1 UNK          0.0000
   28 H        98.0132   74.8119   67.7797 H        1 UNK          0.0000
   29 O        98.1364   71.6087   70.9319 O.3      1 UNK          0.0000
   30 H        97.9103   71.2146   71.7949 H        1 UNK          0.0000
   31 C        94.6438   76.5473   72.2609 C.3      1 UNK          0.0000
   32 H        94.2339   76.9199   73.2079 H        1 UNK          0.0000
   33 H        95.5236   77.1754   72.0554 H        1 UNK          0.0000
   34 C        93.5843   76.7496   71.1315 C.3      1 UNK          0.0000
   35 O        92.9238   75.6637   70.6888 O.3      1 UNK          0.0000
   36 H        93.4149   75.2255   69.9646 H        1 UNK          0.0000
   37 C        93.1721   78.1263   70.5200 C.3      1 UNK          0.0000
   38 H        93.4356   78.9646   71.1893 H        1 UNK          0.0000
   39 O        93.8688   78.2840   69.2597 O.3      1 UNK          0.0000
   40 H        93.4118   78.9061   68.6477 H        1 UNK          0.0000
   41 C        91.6467   78.2564   70.3055 C.3      1 UNK          0.0000
   42 C        90.6661   77.9078   71.4341 C.3      1 UNK          0.0000
   43 H        89.9315   78.7149   71.5845 H        1 UNK          0.0000
   44 H        90.1009   77.0036   71.1661 H        1 UNK          0.0000
   45 O        91.4138   77.6696   72.6447 O.3      1 UNK          0.0000
   46 O        91.2652   79.2105   69.4421 O.3      1 UNK          0.0000
   47 H        90.2920   79.2011   69.3271 H        1 UNK          0.0000
   48 P        91.6135   78.8316   73.7442 P.3      1 UNK          0.0000
   49 O        92.3582   80.0558   73.0185 O.3      1 UNK          0.0000
   50 H        92.3740   80.8191   73.6327 H        1 UNK          0.0000
   51 O        92.5651   78.2511   74.8968 O.3      1 UNK          0.0000
   52 H        92.5883   78.8724   75.6506 H        1 UNK          0.0000
   53 O        90.1933   79.2838   74.3266 O.3      1 UNK          0.0000
   54 H        89.7757   78.5677   74.8411 H        1 UNK          0.0000
@<TRIPOS>BOND
     1     1     2   2 
     2     1     8   1 
     3     1    19   1 
     4     2     3   1 
     5     2    23   1 
     6     3     4   1 
     7     3     5   1 
     8     3     6   1 
     9     6     7   ar
    10     6    11   ar
    11     7     8   1 
    12     7    14   ar
    13     8     9   1 
    14     8    10   1 
    15    11    12   ar
    16    11    31   1 
    17    12    13   ar
    18    12    15   ar
    19    13    14   ar
    20    13    18   ar
    21    15    16   ar
    22    16    17   ar
    23    16    27   1 
    24    17    18   ar
    25    18    29   1 
    26    19    20   1 
    27    19    21   1 
    28    19    22   1 
    29    23    24   1 
    30    23    25   1 
    31    23    26   1 
    32    27    28   1 
    33    29    30   1 
    34    31    32   1 
    35    31    33   1 
    36    31    34   1 
    37    34    35   1 
    38    34    37   1 
    39    35    36   1 
    40    37    38   1 
    41    37    39   1 
    42    37    41   1 
    43    39    40   1 
    44    41    42   1 
    45    41    46   1 
    46    42    43   1 
    47    42    44   1 
    48    42    45   1 
    49    45    48   1 
    50    46    47   1 
    51    48    49   1 
    52    48    51   1 
    53    48    53   1 
    54    49    50   1 
    55    51    52   1 
    56    53    54   1 
 
