@<TRIPOS>COMMENT
   inp11.mol2              7    of   10
                  SCORE =  -294.2870
               dG-SCORE =    -6.9076
      LIGAND_EFFICIENCY =    -0.9493
  NUMBER_OF_HEAVY_ATOMS =         31
                    ASA =  -207.6976
                    ELE =     0.0000
                    HYD =   -86.5895
                    VDW =     0.0000
                   RMSD =    31.9877
 MOLECULAR_WEIGHT = 458.36
@<TRIPOS>MOLECULE
inp11.mol2                                                                      
   54   56    0    0    0
SMALL       
GASTEIGER      
 
@<TRIPOS>ATOM
    1 C        89.3421   82.3069   74.7471 C.2      1 UNK          0.0000
    2 C        90.0804   82.1820   75.8656 C.2      1 UNK          0.0000
    3 C        91.0449   81.0297   76.0970 C.3      1 UNK          0.0000
    4 H        92.0164   81.4461   76.3900 H        1 UNK          0.0000
    5 H        90.6787   80.4594   76.9611 H        1 UNK          0.0000
    6 C        91.2471   80.0858   74.9043 C.ar     1 UNK          0.0000
    7 C        90.4705   80.2354   73.7369 C.ar     1 UNK          0.0000
    8 C        89.4012   81.3107   73.6011 C.3      1 UNK          0.0000
    9 H        88.4178   80.8346   73.4875 H        1 UNK          0.0000
   10 H        89.5670   81.8630   72.6654 H        1 UNK          0.0000
   11 N        92.2229   79.0495   74.9551 N.ar     1 UNK          0.0000
   12 C        92.4093   78.2560   73.7946 C.ar     1 UNK          0.0000
   13 C        91.5673   78.4887   72.6652 C.ar     1 UNK          0.0000
   14 N        90.6271   79.4505   72.6603 N.ar     1 UNK          0.0000
   15 N        93.3577   77.2971   73.7328 N.ar     1 UNK          0.0000
   16 C        93.4737   76.5769   72.6053 C.ar     1 UNK          0.0000
   17 N        92.7290   76.7147   71.5023 N.ar     1 UNK          0.0000
   18 C        91.7781   77.6655   71.5304 C.ar     1 UNK          0.0000
   19 C        88.3131   83.4074   74.4953 C.3      1 UNK          0.0000
   20 H        87.4014   82.9912   74.0476 H        1 UNK          0.0000
   21 H        87.9900   83.9235   75.4061 H        1 UNK          0.0000
   22 H        88.7017   84.1549   73.7909 H        1 UNK          0.0000
   23 C        90.0743   83.1738   77.0282 C.3      1 UNK          0.0000
   24 H        91.0971   83.3944   77.3615 H        1 UNK          0.0000
   25 H        89.6288   84.1416   76.7739 H        1 UNK          0.0000
   26 H        89.5357   82.7622   77.8903 H        1 UNK          0.0000
   27 O        94.4498   75.6369   72.5907 O.3      1 UNK          0.0000
   28 H        94.4094   75.1654   71.7359 H        1 UNK          0.0000
   29 O        91.0302   77.8123   70.3991 O.3      1 UNK          0.0000
   30 H        90.3576   78.5083   70.5190 H        1 UNK          0.0000
   31 C        92.9815   78.6827   76.2120 C.3      1 UNK          0.0000
   32 H        92.5196   79.1848   77.0711 H        1 UNK          0.0000
   33 H        92.8262   77.6069   76.3832 H        1 UNK          0.0000
   34 C        94.5122   78.9927   76.2020 C.3      1 UNK          0.0000
   35 O        94.9687   79.8712   75.2902 O.3      1 UNK          0.0000
   36 H        95.1908   79.4212   74.4501 H        1 UNK          0.0000
   37 C        95.5532   78.4202   77.2157 C.3      1 UNK          0.0000
   38 H        95.0667   78.0605   78.1399 H        1 UNK          0.0000
   39 O        96.2411   77.3167   76.5773 O.3      1 UNK          0.0000
   40 H        97.1286   77.1444   76.9683 H        1 UNK          0.0000
   41 C        96.5732   79.4795   77.6927 C.3      1 UNK          0.0000
   42 C        96.0990   80.8494   78.1977 C.3      1 UNK          0.0000
   43 H        96.5597   81.0956   79.1678 H        1 UNK          0.0000
   44 H        96.4055   81.6311   77.4879 H        1 UNK          0.0000
   45 O        94.6606   80.8336   78.3082 O.3      1 UNK          0.0000
   46 O        97.7027   78.9917   78.2290 O.3      1 UNK          0.0000
   47 H        98.3139   79.7204   78.4652 H        1 UNK          0.0000
   48 P        93.9352   80.5307   79.7157 P.3      1 UNK          0.0000
   49 O        94.4147   79.0760   80.1992 O.3      1 UNK          0.0000
   50 H        94.0876   78.9272   81.1108 H        1 UNK          0.0000
   51 O        92.3543   80.4976   79.4500 O.3      1 UNK          0.0000
   52 H        91.8764   80.4644   80.3015 H        1 UNK          0.0000
   53 O        94.3280   81.6532   80.7864 O.3      1 UNK          0.0000
   54 H        93.9648   82.5240   80.5381 H        1 UNK          0.0000
@<TRIPOS>BOND
     1     1     2   2 
     2     1     8   1 
     3     1    19   1 
     4     2     3   1 
     5     2    23   1 
     6     3     4   1 
     7     3     5   1 
     8     3     6   1 
     9     6     7   ar
    10     6    11   ar
    11     7     8   1 
    12     7    14   ar
    13     8     9   1 
    14     8    10   1 
    15    11    12   ar
    16    11    31   1 
    17    12    13   ar
    18    12    15   ar
    19    13    14   ar
    20    13    18   ar
    21    15    16   ar
    22    16    17   ar
    23    16    27   1 
    24    17    18   ar
    25    18    29   1 
    26    19    20   1 
    27    19    21   1 
    28    19    22   1 
    29    23    24   1 
    30    23    25   1 
    31    23    26   1 
    32    27    28   1 
    33    29    30   1 
    34    31    32   1 
    35    31    33   1 
    36    31    34   1 
    37    34    35   1 
    38    34    37   1 
    39    35    36   1 
    40    37    38   1 
    41    37    39   1 
    42    37    41   1 
    43    39    40   1 
    44    41    42   1 
    45    41    46   1 
    46    42    43   1 
    47    42    44   1 
    48    42    45   1 
    49    45    48   1 
    50    46    47   1 
    51    48    49   1 
    52    48    51   1 
    53    48    53   1 
    54    49    50   1 
    55    51    52   1 
    56    53    54   1 
 
