@<TRIPOS>COMMENT
   inp11.mol2              8    of   10
                  SCORE =  -293.0794
               dG-SCORE =    -7.0594
      LIGAND_EFFICIENCY =    -0.9454
  NUMBER_OF_HEAVY_ATOMS =         31
                    ASA =  -194.2060
                    ELE =     0.0000
                    HYD =   -98.8733
                    VDW =     0.0000
                   RMSD =    29.8055
 MOLECULAR_WEIGHT = 458.36
@<TRIPOS>MOLECULE
inp11.mol2                                                                      
   54   56    0    0    0
SMALL       
GASTEIGER      
 
@<TRIPOS>ATOM
    1 C        91.2279   78.5877   72.1931 C.2      1 UNK          0.0000
    2 C        91.9294   77.4402   72.2447 C.2      1 UNK          0.0000
    3 C        92.8611   77.0899   73.3941 C.3      1 UNK          0.0000
    4 H        92.6059   76.0847   73.7513 H        1 UNK          0.0000
    5 H        93.8791   77.0253   72.9875 H        1 UNK          0.0000
    6 C        92.8408   78.0607   74.5821 C.ar     1 UNK          0.0000
    7 C        92.0943   79.2550   74.5145 C.ar     1 UNK          0.0000
    8 C        91.2934   79.6472   73.2804 C.3      1 UNK          0.0000
    9 H        91.7068   80.5724   72.8564 H        1 UNK          0.0000
   10 H        90.2681   79.8995   73.5855 H        1 UNK          0.0000
   11 N        93.5696   77.7696   75.7707 N.ar     1 UNK          0.0000
   12 C        93.4536   78.6724   76.8582 C.ar     1 UNK          0.0000
   13 C        92.6730   79.8553   76.6841 C.ar     1 UNK          0.0000
   14 N        92.0265   80.1227   75.5353 N.ar     1 UNK          0.0000
   15 N        94.0558   78.4397   78.0439 N.ar     1 UNK          0.0000
   16 C        93.9109   79.3414   79.0285 C.ar     1 UNK          0.0000
   17 N        93.2096   80.4786   78.9584 N.ar     1 UNK          0.0000
   18 C        92.5933   80.7372   77.7912 C.ar     1 UNK          0.0000
   19 C        90.3314   79.0146   71.0323 C.3      1 UNK          0.0000
   20 H        90.4844   80.0751   70.7934 H        1 UNK          0.0000
   21 H        90.5258   78.4679   70.1030 H        1 UNK          0.0000
   22 H        89.2708   78.8958   71.2906 H        1 UNK          0.0000
   23 C        91.8716   76.3359   71.1898 C.3      1 UNK          0.0000
   24 H        91.7882   75.3473   71.6604 H        1 UNK          0.0000
   25 H        91.0107   76.4193   70.5176 H        1 UNK          0.0000
   26 H        92.7842   76.3279   70.5818 H        1 UNK          0.0000
   27 O        94.5243   79.0531   80.2021 O.3      1 UNK          0.0000
   28 H        94.3709   79.7949   80.8192 H        1 UNK          0.0000
   29 O        91.8679   81.8907   77.7282 O.3      1 UNK          0.0000
   30 H        91.4750   82.0023   76.8424 H        1 UNK          0.0000
   31 C        94.5426   76.6167   75.8882 C.3      1 UNK          0.0000
   32 H        94.7319   76.2019   74.8903 H        1 UNK          0.0000
   33 H        95.5049   77.0358   76.2185 H        1 UNK          0.0000
   34 C        94.1206   75.4607   76.8497 C.3      1 UNK          0.0000
   35 O        92.8224   75.3732   77.1941 O.3      1 UNK          0.0000
   36 H        92.6314   75.9190   77.9836 H        1 UNK          0.0000
   37 C        95.0724   74.3468   77.3904 C.3      1 UNK          0.0000
   38 H        95.9769   74.2447   76.7645 H        1 UNK          0.0000
   39 O        95.4624   74.7056   78.7387 O.3      1 UNK          0.0000
   40 H        95.7365   73.9263   79.2754 H        1 UNK          0.0000
   41 C        94.4235   72.9438   77.3789 C.3      1 UNK          0.0000
   42 C        93.7193   72.4185   76.1200 C.3      1 UNK          0.0000
   43 H        94.0715   71.4072   75.8614 H        1 UNK          0.0000
   44 H        92.6380   72.3455   76.3049 H        1 UNK          0.0000
   45 O        93.9632   73.3347   75.0325 O.3      1 UNK          0.0000
   46 O        95.0055   72.0329   78.1745 O.3      1 UNK          0.0000
   47 H        94.5127   71.1862   78.1458 H        1 UNK          0.0000
   48 P        95.1477   73.0729   73.9708 P.3      1 UNK          0.0000
   49 O        96.5255   73.0142   74.7942 O.3      1 UNK          0.0000
   50 H        97.2396   72.7291   74.1868 H        1 UNK          0.0000
   51 O        95.1898   74.3262   72.9716 O.3      1 UNK          0.0000
   52 H        95.7939   74.1358   72.2276 H        1 UNK          0.0000
   53 O        94.8860   71.7034   73.1855 O.3      1 UNK          0.0000
   54 H        94.0952   71.7649   72.6175 H        1 UNK          0.0000
@<TRIPOS>BOND
     1     1     2   2 
     2     1     8   1 
     3     1    19   1 
     4     2     3   1 
     5     2    23   1 
     6     3     4   1 
     7     3     5   1 
     8     3     6   1 
     9     6     7   ar
    10     6    11   ar
    11     7     8   1 
    12     7    14   ar
    13     8     9   1 
    14     8    10   1 
    15    11    12   ar
    16    11    31   1 
    17    12    13   ar
    18    12    15   ar
    19    13    14   ar
    20    13    18   ar
    21    15    16   ar
    22    16    17   ar
    23    16    27   1 
    24    17    18   ar
    25    18    29   1 
    26    19    20   1 
    27    19    21   1 
    28    19    22   1 
    29    23    24   1 
    30    23    25   1 
    31    23    26   1 
    32    27    28   1 
    33    29    30   1 
    34    31    32   1 
    35    31    33   1 
    36    31    34   1 
    37    34    35   1 
    38    34    37   1 
    39    35    36   1 
    40    37    38   1 
    41    37    39   1 
    42    37    41   1 
    43    39    40   1 
    44    41    42   1 
    45    41    46   1 
    46    42    43   1 
    47    42    44   1 
    48    42    45   1 
    49    45    48   1 
    50    46    47   1 
    51    48    49   1 
    52    48    51   1 
    53    48    53   1 
    54    49    50   1 
    55    51    52   1 
    56    53    54   1 
 
