@<TRIPOS>COMMENT
   inp8.mol2               1    of   10
                  SCORE =  -524.2576
               dG-SCORE =   -12.4057
      LIGAND_EFFICIENCY =    -0.9892
  NUMBER_OF_HEAVY_ATOMS =         53
                    ASA =  -398.8416
                    ELE =     0.0000
                    HYD =  -112.8537
                    VDW =   -12.5623
                   RMSD =    33.1587
 MOLECULAR_WEIGHT = 789.59
@<TRIPOS>MOLECULE
inp8.mol2                                                                       
   90   95    0    0    0
SMALL       
GASTEIGER      
 
@<TRIPOS>ATOM
    1 P       108.1015  124.3311  137.6070 P.3      1 UNK          0.0000
    2 P       106.0818  123.3920  139.4977 P.3      1 UNK          0.0000
    3 O       110.9223  122.2311  136.3789 O.3      1 UNK          0.0000
    4 O       113.8864  121.2181  137.0432 O.3      1 UNK          0.0000
    5 H       114.8043  121.3888  137.3536 H        1 UNK          0.0000
    6 O       112.9032  122.3774  139.5377 O.3      1 UNK          0.0000
    7 H       113.3927  121.5482  139.4560 H        1 UNK          0.0000
    8 O       109.5902  123.8455  137.8536 O.3      1 UNK          0.0000
    9 O       108.7176  118.6433  139.9357 O.3      1 UNK          0.0000
   10 H       108.4159  117.7503  140.2132 H        1 UNK          0.0000
   11 O       107.3443  124.2279  139.0018 O.3      1 UNK          0.0000
   12 O       110.2957  121.4417  141.7044 O.3      1 UNK          0.0000
   13 H       110.2053  122.3910  141.5079 H        1 UNK          0.0000
   14 O       106.2977  121.8619  139.1651 O.3      1 UNK          0.0000
   15 O       107.3159  121.3772  141.7929 O.3      1 UNK          0.0000
   16 H       107.1835  120.4131  141.8348 H        1 UNK          0.0000
   17 O       108.1675  125.8737  137.2098 O.3      1 UNK          0.0000
   18 H       108.8062  125.9705  136.4895 H        1 UNK          0.0000
   19 O       107.4550  123.5095  136.4014 O.3      1 UNK          0.0000
   20 H       108.0785  123.5898  135.6619 H        1 UNK          0.0000
   21 O       105.9545  123.6061  141.0994 O.3      1 UNK          0.0000
   22 H       105.7742  124.5240  141.3383 H        1 UNK          0.0000
   23 O       107.1193  113.2446  143.2748 O.2      1 UNK          0.0000
   24 O       104.7542  123.7353  138.6858 O.3      1 UNK          0.0000
   25 H       104.9045  123.5251  137.7441 H        1 UNK          0.0000
   26 O       106.8258  117.2492  145.3534 O.2      1 UNK          0.0000
   27 N       112.1901  123.7577  135.0052 N.ar     1 UNK          0.0000
   28 N       109.7965  117.0202  141.7016 N.ar     1 UNK          0.0000
   29 N       112.7624  124.9179  133.1089 N.ar     1 UNK          0.0000
   30 N       111.8323  125.8110  136.4697 N.ar     1 UNK          0.0000
   31 N       109.0562  114.2347  141.3486 N.ar     1 UNK          0.0000
   32 H       108.8557  113.2431  141.2783 H        1 UNK          0.0000
   33 N       108.1767  117.1728  143.5604 N.am     1 UNK          0.0000
   34 H       108.3859  118.1505  143.7076 H        1 UNK          0.0000
   35 N       112.1723  127.9235  135.2182 N.ar     1 UNK          0.0000
   36 N       106.9261  115.2223  144.3446 N.am     1 UNK          0.0000
   37 H       106.2887  114.8228  145.0339 H        1 UNK          0.0000
   38 N       112.8582  127.8772  132.9640 N.pl3    1 UNK          0.0000
   39 H       112.9293  128.8778  133.0011 H        1 UNK          0.0000
   40 H       113.0549  127.3715  132.1101 H        1 UNK          0.0000
   41 C       113.2233  122.4880  137.0322 C.3      1 UNK          0.0000
   42 H       113.9477  123.3014  136.9594 H        1 UNK          0.0000
   43 C       112.3603  122.7101  138.2423 C.3      1 UNK          0.0000
   44 H       112.1400  123.7816  138.2305 H        1 UNK          0.0000
   45 C       112.1871  122.5477  135.8636 C.3      1 UNK          0.0000
   46 H       112.4035  121.7245  135.1918 H        1 UNK          0.0000
   47 C       111.1097  121.9563  137.7604 C.3      1 UNK          0.0000
   48 H       111.1908  120.8851  137.9236 H        1 UNK          0.0000
   49 C       109.8536  122.5131  138.3597 C.3      1 UNK          0.0000
   50 H       109.0368  121.8561  138.0553 H        1 UNK          0.0000
   51 H       109.9347  122.4605  139.4579 H        1 UNK          0.0000
   52 C       112.1185  125.1010  135.3110 C.ar     1 UNK          0.0000
   53 C       112.4376  123.7284  133.6190 C.ar     1 UNK          0.0000
   54 H       112.4578  122.8110  133.0482 H        1 UNK          0.0000
   55 C       112.4647  125.7552  134.1150 C.ar     1 UNK          0.0000
   56 C       109.0793  119.3185  141.1351 C.3      1 UNK          0.0000
   57 H       108.1697  119.3791  141.7473 H        1 UNK          0.0000
   58 C       110.0946  118.4615  141.9135 C.3      1 UNK          0.0000
   59 H       110.0608  118.7302  142.9752 H        1 UNK          0.0000
   60 H       111.1137  118.6724  141.5825 H        1 UNK          0.0000
   61 C       109.4774  120.7793  140.7757 C.3      1 UNK          0.0000
   62 H       109.9852  120.8110  139.8042 H        1 UNK          0.0000
   63 C       110.4318  116.2213  140.7014 C.ar     1 UNK          0.0000
   64 C       108.1897  121.6100  140.6901 C.3      1 UNK          0.0000
   65 H       108.4239  122.6730  140.5974 H        1 UNK          0.0000
   66 C       108.7674  116.4320  142.5364 C.ar     1 UNK          0.0000
   67 C       110.0955  114.8147  140.5191 C.ar     1 UNK          0.0000
   68 C       108.4301  115.0363  142.3164 C.ar     1 UNK          0.0000
   69 C       112.4974  127.1958  134.0936 C.ar     1 UNK          0.0000
   70 C       107.5432  121.2092  139.3736 C.3      1 UNK          0.0000
   71 H       107.4104  120.1259  139.3664 H        1 UNK          0.0000
   72 H       108.2336  121.4626  138.5538 H        1 UNK          0.0000
   73 C       111.5151  116.7427  139.8710 C.ar     1 UNK          0.0000
   74 H       111.7790  117.7788  139.9567 H        1 UNK          0.0000
   75 C       110.8560  113.9853  139.6676 C.ar     1 UNK          0.0000
   76 H       110.6960  112.9124  139.6218 H        1 UNK          0.0000
   77 C       112.2219  115.9376  138.9502 C.ar     1 UNK          0.0000
   78 C       111.9085  114.5533  138.8616 C.ar     1 UNK          0.0000
   79 C       111.8380  127.2017  136.3527 C.ar     1 UNK          0.0000
   80 H       111.5612  127.7931  137.2064 H        1 UNK          0.0000
   81 C       107.4273  114.4144  143.3219 C.2      1 UNK          0.0000
   82 C       107.2730  116.5748  144.4703 C.2      1 UNK          0.0000
   83 C       113.3029  116.5405  138.0095 C.3      1 UNK          0.0000
   84 H       113.0814  116.2982  136.9669 H        1 UNK          0.0000
   85 H       113.3614  117.6257  138.0769 H        1 UNK          0.0000
   86 H       114.2975  116.1559  138.2145 H        1 UNK          0.0000
   87 C       112.6672  113.6705  137.9216 C.3      1 UNK          0.0000
   88 H       113.7402  113.8486  138.0453 H        1 UNK          0.0000
   89 H       112.4377  113.9095  136.8825 H        1 UNK          0.0000
   90 H       112.4458  112.6089  138.0744 H        1 UNK          0.0000
@<TRIPOS>BOND
     1     1     8   1 
     2     1    11   1 
     3     1    17   1 
     4     1    19   1 
     5     2    11   1 
     6     2    14   1 
     7     2    21   1 
     8     2    24   1 
     9     3    45   1 
    10     3    47   1 
    11     4     5   1 
    12     4    41   1 
    13     6     7   1 
    14     6    43   1 
    15     8    49   1 
    16     9    10   1 
    17     9    56   1 
    18    12    13   1 
    19    12    61   1 
    20    14    70   1 
    21    15    16   1 
    22    15    64   1 
    23    17    18   1 
    24    19    20   1 
    25    21    22   1 
    26    23    81   2 
    27    24    25   1 
    28    26    82   2 
    29    27    45   1 
    30    27    52   1 
    31    27    53   1 
    32    28    58   1 
    33    28    63   ar
    34    28    66   ar
    35    29    53   2 
    36    29    55   1 
    37    30    52   ar
    38    30    79   ar
    39    31    32   1 
    40    31    67   ar
    41    31    68   ar
    42    33    34   1 
    43    33    66   1 
    44    33    82   am
    45    35    69   ar
    46    35    79   ar
    47    36    37   1 
    48    36    81   am
    49    36    82   am
    50    38    39   1 
    51    38    40   1 
    52    38    69   1 
    53    41    42   1 
    54    41    43   1 
    55    41    45   1 
    56    43    44   1 
    57    43    47   1 
    58    45    46   1 
    59    47    48   1 
    60    47    49   1 
    61    49    50   1 
    62    49    51   1 
    63    52    55   ar
    64    53    54   1 
    65    55    69   ar
    66    56    57   1 
    67    56    58   1 
    68    56    61   1 
    69    58    59   1 
    70    58    60   1 
    71    61    62   1 
    72    61    64   1 
    73    63    67   ar
    74    63    73   ar
    75    64    65   1 
    76    64    70   1 
    77    66    68   ar
    78    67    75   ar
    79    68    81   1 
    80    70    71   1 
    81    70    72   1 
    82    73    74   1 
    83    73    77   ar
    84    75    76   1 
    85    75    78   ar
    86    77    78   ar
    87    77    83   1 
    88    78    87   1 
    89    79    80   1 
    90    83    84   1 
    91    83    85   1 
    92    83    86   1 
    93    87    88   1 
    94    87    89   1 
    95    87    90   1 
 
