inp8.mol2
     Hgene          

 53 58  0  0  0  0               V2000
  108.1015  124.3311  137.6070 P   0  0  1  0  0
  106.0818  123.3920  139.4977 P   0  0  1  0  0
  110.9223  122.2311  136.3789 O   0  0  0  0  0
  113.8864  121.2181  137.0432 O   0  0  0  0  0
  112.9032  122.3774  139.5377 O   0  0  0  0  0
  109.5902  123.8455  137.8536 O   0  0  0  0  0
  108.7176  118.6433  139.9357 O   0  0  0  0  0
  107.3443  124.2279  139.0018 O   0  0  0  0  0
  110.2957  121.4417  141.7044 O   0  0  0  0  0
  106.2977  121.8619  139.1651 O   0  0  0  0  0
  107.3159  121.3772  141.7929 O   0  0  0  0  0
  108.1675  125.8737  137.2098 O   0  0  0  0  0
  107.4550  123.5095  136.4014 O   0  0  0  0  0
  105.9545  123.6061  141.0994 O   0  0  0  0  0
  107.1193  113.2446  143.2748 O   0  0  0  0  0
  104.7542  123.7353  138.6858 O   0  0  0  0  0
  106.8258  117.2492  145.3534 O   0  0  0  0  0
  112.1901  123.7577  135.0052 N   0  0  0  0  0
  109.7965  117.0202  141.7016 N   0  0  0  0  0
  112.7624  124.9179  133.1089 N   0  0  0  0  0
  111.8323  125.8110  136.4697 N   0  0  0  0  0
  109.0562  114.2347  141.3486 N   0  0  0  0  0
  108.1767  117.1728  143.5604 N   0  0  0  0  0
  112.1723  127.9235  135.2182 N   0  0  0  0  0
  106.9261  115.2223  144.3446 N   0  0  0  0  0
  112.8582  127.8772  132.9640 N   0  0  0  0  0
  113.2233  122.4880  137.0322 C   0  0  0  0  0
  112.3603  122.7101  138.2423 C   0  0  0  0  0
  112.1871  122.5477  135.8636 C   0  0  0  0  0
  111.1097  121.9563  137.7604 C   0  0  0  0  0
  109.8536  122.5131  138.3597 C   0  0  0  0  0
  112.1185  125.1010  135.3110 C   0  0  0  0  0
  112.4376  123.7284  133.6190 C   0  0  0  0  0
  112.4647  125.7552  134.1150 C   0  0  0  0  0
  109.0793  119.3185  141.1351 C   0  0  0  0  0
  110.0946  118.4615  141.9135 C   0  0  0  0  0
  109.4774  120.7793  140.7757 C   0  0  0  0  0
  110.4318  116.2213  140.7014 C   0  0  0  0  0
  108.1897  121.6100  140.6901 C   0  0  0  0  0
  108.7674  116.4320  142.5364 C   0  0  0  0  0
  110.0955  114.8147  140.5191 C   0  0  0  0  0
  108.4301  115.0363  142.3164 C   0  0  0  0  0
  112.4974  127.1958  134.0936 C   0  0  0  0  0
  107.5432  121.2092  139.3736 C   0  0  0  0  0
  111.5151  116.7427  139.8710 C   0  0  0  0  0
  110.8560  113.9853  139.6676 C   0  0  0  0  0
  112.2219  115.9376  138.9502 C   0  0  0  0  0
  111.9085  114.5533  138.8616 C   0  0  0  0  0
  111.8380  127.2017  136.3527 C   0  0  0  0  0
  107.4273  114.4144  143.3219 C   0  0  0  0  0
  107.2730  116.5748  144.4703 C   0  0  0  0  0
  113.3029  116.5405  138.0095 C   0  0  0  0  0
  112.6672  113.6705  137.9216 C   0  0  0  0  0
  1  6  1  0
  1  8  1  0
  1 12  1  0
  1 13  1  0
  2  8  1  0
  2 10  1  0
  2 14  1  0
  2 16  1  0
  3 29  1  0
  3 30  1  0
  4 27  1  0
  5 28  1  0
  6 31  1  0
  7 35  1  0
  9 37  1  0
 10 44  1  0
 11 39  1  0
 15 50  2  0
 17 51  2  0
 18 29  1  0
 18 32  1  0
 18 33  1  0
 19 36  1  0
 19 38  4  0
 19 40  4  0
 20 33  2  0
 20 34  1  0
 21 32  4  0
 21 49  4  0
 22 41  4  0
 22 42  4  0
 23 40  1  0
 23 51  1  0
 24 43  4  0
 24 49  4  0
 25 50  1  0
 25 51  1  0
 26 43  1  0
 27 28  1  0
 27 29  1  0
 28 30  1  0
 30 31  1  0
 32 34  4  0
 34 43  4  0
 35 36  1  0
 35 37  1  0
 37 39  1  0
 38 41  4  0
 38 45  4  0
 39 44  1  0
 40 42  4  0
 41 46  4  0
 42 50  1  0
 45 47  4  0
 46 48  4  0
 47 48  4  0
 47 52  1  0
 48 53  1  0
M  END
$$$$
