inp8.mol2
     Hgene          

 53 58  0  0  0  0               V2000
  111.2920  121.7023  137.5307 P   0  0  1  0  0
  111.0128  121.5368  140.3945 P   0  0  1  0  0
  112.9929  124.9263  136.1493 O   0  0  0  0  0
  112.1546  128.0143  135.3662 O   0  0  0  0  0
  109.9192  126.7266  136.3783 O   0  0  0  0  0
  110.9544  123.1464  136.9470 O   0  0  0  0  0
  107.9992  117.1556  139.8660 O   0  0  0  0  0
  110.5002  121.3597  138.8781 O   0  0  0  0  0
  106.4398  119.4548  141.2650 O   0  0  0  0  0
  109.7178  121.8971  141.3105 O   0  0  0  0  0
  109.9006  118.8935  142.0488 O   0  0  0  0  0
  110.9266  120.5997  136.4391 O   0  0  0  0  0
  112.8734  121.6994  137.7752 O   0  0  0  0  0
  111.7499  120.2218  140.9145 O   0  0  0  0  0
  107.9350  110.4715  140.2343 O   0  0  0  0  0
  112.2565  122.5562  140.6128 O   0  0  0  0  0
  105.5254  112.7400  143.3144 O   0  0  0  0  0
  113.4667  125.0397  133.8870 N   0  0  0  0  0
  109.0603  115.1158  141.2790 N   0  0  0  0  0
  114.4578  124.1457  132.0258 N   0  0  0  0  0
  111.4579  123.6111  133.9420 N   0  0  0  0  0
  109.8009  112.6600  139.8784 N   0  0  0  0  0
  107.2807  113.8385  142.4321 N   0  0  0  0  0
  111.5233  121.8824  132.2314 N   0  0  0  0  0
  106.6981  111.5449  141.7874 N   0  0  0  0  0
  113.3700  121.7025  130.6999 N   0  0  0  0  0
  111.8906  126.6697  134.9459 C   0  0  0  0  0
  110.9530  125.9131  135.8923 C   0  0  0  0  0
  113.2012  125.8474  135.0607 C   0  0  0  0  0
  111.9167  125.4147  136.9453 C   0  0  0  0  0
  111.3336  124.2673  137.7666 C   0  0  0  0  0
  112.6603  124.0637  133.4450 C   0  0  0  0  0
  114.5896  124.9995  133.0513 C   0  0  0  0  0
  113.3305  123.4948  132.3531 C   0  0  0  0  0
  107.6662  117.2560  141.2358 C   0  0  0  0  0
  108.6785  116.3782  142.0090 C   0  0  0  0  0
  107.5698  118.7318  141.7552 C   0  0  0  0  0
  110.2157  115.0904  140.3510 C   0  0  0  0  0
  108.8243  119.5336  141.3706 C   0  0  0  0  0
  108.3452  113.9144  141.4807 C   0  0  0  0  0
  110.5447  113.8077  139.7181 C   0  0  0  0  0
  108.6560  112.6973  140.7407 C   0  0  0  0  0
  112.7514  122.3490  131.7614 C   0  0  0  0  0
  108.6267  121.0281  141.7004 C   0  0  0  0  0
  111.0907  116.2023  140.1660 C   0  0  0  0  0
  111.7334  113.6876  138.9212 C   0  0  0  0  0
  112.3223  116.0115  139.4308 C   0  0  0  0  0
  112.5515  114.7902  138.7908 C   0  0  0  0  0
  110.9204  122.5551  133.2959 C   0  0  0  0  0
  107.7789  111.4890  140.8818 C   0  0  0  0  0
  106.4794  112.7008  142.5625 C   0  0  0  0  0
  113.4211  117.0259  139.3563 C   0  0  0  0  0
  113.7651  114.6924  137.9160 C   0  0  0  0  0
  1  6  1  0
  1  8  1  0
  1 12  1  0
  1 13  1  0
  2  8  1  0
  2 10  1  0
  2 14  1  0
  2 16  1  0
  3 29  1  0
  3 30  1  0
  4 27  1  0
  5 28  1  0
  6 31  1  0
  7 35  1  0
  9 37  1  0
 10 44  1  0
 11 39  1  0
 15 50  2  0
 17 51  2  0
 18 29  1  0
 18 32  1  0
 18 33  1  0
 19 36  1  0
 19 38  4  0
 19 40  4  0
 20 33  2  0
 20 34  1  0
 21 32  4  0
 21 49  4  0
 22 41  4  0
 22 42  4  0
 23 40  1  0
 23 51  1  0
 24 43  4  0
 24 49  4  0
 25 50  1  0
 25 51  1  0
 26 43  1  0
 27 28  1  0
 27 29  1  0
 28 30  1  0
 30 31  1  0
 32 34  4  0
 34 43  4  0
 35 36  1  0
 35 37  1  0
 37 39  1  0
 38 41  4  0
 38 45  4  0
 39 44  1  0
 40 42  4  0
 41 46  4  0
 42 50  1  0
 45 47  4  0
 46 48  4  0
 47 48  4  0
 47 52  1  0
 48 53  1  0
M  END
$$$$
