@<TRIPOS>COMMENT
   inp8.mol2               4    of   10
                  SCORE =  -508.7370
               dG-SCORE =   -12.3208
      LIGAND_EFFICIENCY =    -0.9599
  NUMBER_OF_HEAVY_ATOMS =         53
                    ASA =  -357.2300
                    ELE =     0.0000
                    HYD =  -137.2171
                    VDW =   -14.2898
                   RMSD =    34.3349
 MOLECULAR_WEIGHT = 789.59
@<TRIPOS>MOLECULE
inp8.mol2                                                                       
   90   95    0    0    0
SMALL       
GASTEIGER      
 
@<TRIPOS>ATOM
    1 P       112.3601  117.3260  138.8578 P.3      1 UNK          0.0000
    2 P       114.1969  117.9327  136.5579 P.3      1 UNK          0.0000
    3 O       108.9800  119.2022  140.0042 O.3      1 UNK          0.0000
    4 O       107.4888  121.9168  141.1879 O.3      1 UNK          0.0000
    5 H       106.6365  121.7545  141.6306 H        1 UNK          0.0000
    6 O       110.2665  122.2292  141.0226 O.3      1 UNK          0.0000
    7 H       109.4577  122.7483  140.8935 H        1 UNK          0.0000
    8 O       111.6787  118.6092  139.6479 O.3      1 UNK          0.0000
    9 O       110.8387  122.5458  135.7711 O.3      1 UNK          0.0000
   10 H       110.8039  123.0183  134.9112 H        1 UNK          0.0000
   11 O       113.7937  117.4048  138.0458 O.3      1 UNK          0.0000
   12 O       112.8182  122.7120  138.8123 O.3      1 UNK          0.0000
   13 H       112.9589  122.0740  139.5383 H        1 UNK          0.0000
   14 O       113.0872  118.7962  135.7587 O.3      1 UNK          0.0000
   15 O       114.4929  121.2075  137.0191 O.3      1 UNK          0.0000
   16 H       114.5074  121.9728  136.4184 H        1 UNK          0.0000
   17 O       112.6067  116.3006  140.0202 O.3      1 UNK          0.0000
   18 H       111.7176  116.0536  140.3257 H        1 UNK          0.0000
   19 O       111.2168  116.5161  138.1275 O.3      1 UNK          0.0000
   20 H       110.5974  116.2222  138.8170 H        1 UNK          0.0000
   21 O       115.6387  118.6622  136.4787 O.3      1 UNK          0.0000
   22 H       115.6500  119.4679  137.0169 H        1 UNK          0.0000
   23 O       112.5492  127.6352  131.5705 O.2      1 UNK          0.0000
   24 O       114.2286  116.6716  135.5959 O.3      1 UNK          0.0000
   25 H       114.5754  116.9704  134.7368 H        1 UNK          0.0000
   26 O       115.8562  125.9657  134.1526 O.2      1 UNK          0.0000
   27 N       107.7015  118.4970  141.7248 N.ar     1 UNK          0.0000
   28 N       111.4227  125.3649  135.7328 N.ar     1 UNK          0.0000
   29 N       106.4830  116.8228  142.5952 N.ar     1 UNK          0.0000
   30 N       109.8519  117.9992  142.9052 N.ar     1 UNK          0.0000
   31 N       110.4654  126.7826  133.4283 N.ar     1 UNK          0.0000
   32 H       110.1474  127.2572  132.6055 H        1 UNK          0.0000
   33 N       113.7472  125.6737  134.9112 N.am     1 UNK          0.0000
   34 H       114.1088  125.1461  135.6851 H        1 UNK          0.0000
   35 N       109.3448  116.5385  144.8216 N.ar     1 UNK          0.0000
   36 N       114.2360  126.8296  132.8172 N.am     1 UNK          0.0000
   37 H       114.9195  127.1279  132.1308 H        1 UNK          0.0000
   38 N       107.3648  115.0939  144.6903 N.pl3    1 UNK          0.0000
   39 H       107.6538  114.5155  145.4590 H        1 UNK          0.0000
   40 H       106.5309  114.8478  144.1781 H        1 UNK          0.0000
   41 C       108.3767  120.8619  141.5949 C.3      1 UNK          0.0000
   42 H       108.3688  120.6924  142.6778 H        1 UNK          0.0000
   43 C       109.7917  120.9277  141.0224 C.3      1 UNK          0.0000
   44 H       110.4118  120.2574  141.6260 H        1 UNK          0.0000
   45 C       107.9361  119.6142  140.8852 C.3      1 UNK          0.0000
   46 H       107.0187  119.8415  140.3381 H        1 UNK          0.0000
   47 C       109.7385  120.3408  139.6648 C.3      1 UNK          0.0000
   48 H       109.2204  121.0272  138.9835 H        1 UNK          0.0000
   49 C       111.1029  119.8625  139.1116 C.3      1 UNK          0.0000
   50 H       110.9692  119.7561  138.0284 H        1 UNK          0.0000
   51 H       111.8006  120.7003  139.2473 H        1 UNK          0.0000
   52 C       108.5229  117.8480  142.5634 C.ar     1 UNK          0.0000
   53 C       106.4816  117.8920  141.8398 C.ar     1 UNK          0.0000
   54 H       105.6283  118.2719  141.3094 H        1 UNK          0.0000
   55 C       107.6757  116.9235  143.1623 C.ar     1 UNK          0.0000
   56 C       111.9941  123.0328  136.4739 C.3      1 UNK          0.0000
   57 H       112.8503  122.9385  135.8062 H        1 UNK          0.0000
   58 C       111.9129  124.5352  136.8529 C.3      1 UNK          0.0000
   59 H       112.8982  124.8935  137.1411 H        1 UNK          0.0000
   60 H       111.2916  124.6708  137.7355 H        1 UNK          0.0000
   61 C       112.2532  122.0835  137.6616 C.3      1 UNK          0.0000
   62 H       111.2686  121.7042  137.9638 H        1 UNK          0.0000
   63 C       110.0173  125.5415  135.5237 C.ar     1 UNK          0.0000
   64 C       113.1248  120.8781  137.2184 C.3      1 UNK          0.0000
   65 H       113.1613  120.2378  138.0989 H        1 UNK          0.0000
   66 C       112.3597  125.8897  134.7812 C.ar     1 UNK          0.0000
   67 C       109.5287  126.2720  134.3712 C.ar     1 UNK          0.0000
   68 C       111.8568  126.5989  133.6239 C.ar     1 UNK          0.0000
   69 C       108.1218  116.1801  144.2688 C.ar     1 UNK          0.0000
   70 C       112.3661  119.9771  136.1680 C.3      1 UNK          0.0000
   71 H       112.0280  120.5618  135.3201 H        1 UNK          0.0000
   72 H       111.4379  119.6406  136.6406 H        1 UNK          0.0000
   73 C       109.0595  124.9058  136.3842 C.ar     1 UNK          0.0000
   74 H       109.3768  124.3127  137.2285 H        1 UNK          0.0000
   75 C       108.1270  126.4031  134.1499 C.ar     1 UNK          0.0000
   76 H       107.7551  126.9538  133.2930 H        1 UNK          0.0000
   77 C       107.6821  124.9548  136.1222 C.ar     1 UNK          0.0000
   78 C       107.1829  125.7645  135.0332 C.ar     1 UNK          0.0000
   79 C       110.2077  117.3492  144.0682 C.ar     1 UNK          0.0000
   80 H       111.2327  117.4860  144.4138 H        1 UNK          0.0000
   81 C       112.8758  127.0795  132.5925 C.2      1 UNK          0.0000
   82 C       114.6741  126.1529  133.9654 C.2      1 UNK          0.0000
   83 C       106.8500  124.0554  137.0408 C.3      1 UNK          0.0000
   84 H       106.1734  124.6433  137.6549 H        1 UNK          0.0000
   85 H       106.2572  123.3317  136.4755 H        1 UNK          0.0000
   86 H       107.4843  123.4923  137.7409 H        1 UNK          0.0000
   87 C       105.6947  125.9634  134.7512 C.3      1 UNK          0.0000
   88 H       105.2014  126.4787  135.5766 H        1 UNK          0.0000
   89 H       105.1786  125.0049  134.6115 H        1 UNK          0.0000
   90 H       105.5238  126.5757  133.8589 H        1 UNK          0.0000
@<TRIPOS>BOND
     1     1     8   1 
     2     1    11   1 
     3     1    17   1 
     4     1    19   1 
     5     2    11   1 
     6     2    14   1 
     7     2    21   1 
     8     2    24   1 
     9     3    45   1 
    10     3    47   1 
    11     4     5   1 
    12     4    41   1 
    13     6     7   1 
    14     6    43   1 
    15     8    49   1 
    16     9    10   1 
    17     9    56   1 
    18    12    13   1 
    19    12    61   1 
    20    14    70   1 
    21    15    16   1 
    22    15    64   1 
    23    17    18   1 
    24    19    20   1 
    25    21    22   1 
    26    23    81   2 
    27    24    25   1 
    28    26    82   2 
    29    27    45   1 
    30    27    52   1 
    31    27    53   1 
    32    28    58   1 
    33    28    63   ar
    34    28    66   ar
    35    29    53   2 
    36    29    55   1 
    37    30    52   ar
    38    30    79   ar
    39    31    32   1 
    40    31    67   ar
    41    31    68   ar
    42    33    34   1 
    43    33    66   1 
    44    33    82   am
    45    35    69   ar
    46    35    79   ar
    47    36    37   1 
    48    36    81   am
    49    36    82   am
    50    38    39   1 
    51    38    40   1 
    52    38    69   1 
    53    41    42   1 
    54    41    43   1 
    55    41    45   1 
    56    43    44   1 
    57    43    47   1 
    58    45    46   1 
    59    47    48   1 
    60    47    49   1 
    61    49    50   1 
    62    49    51   1 
    63    52    55   ar
    64    53    54   1 
    65    55    69   ar
    66    56    57   1 
    67    56    58   1 
    68    56    61   1 
    69    58    59   1 
    70    58    60   1 
    71    61    62   1 
    72    61    64   1 
    73    63    67   ar
    74    63    73   ar
    75    64    65   1 
    76    64    70   1 
    77    66    68   ar
    78    67    75   ar
    79    68    81   1 
    80    70    71   1 
    81    70    72   1 
    82    73    74   1 
    83    73    77   ar
    84    75    76   1 
    85    75    78   ar
    86    77    78   ar
    87    77    83   1 
    88    78    87   1 
    89    79    80   1 
    90    83    84   1 
    91    83    85   1 
    92    83    86   1 
    93    87    88   1 
    94    87    89   1 
    95    87    90   1 
 
