inp8.mol2
     Hgene          

 53 58  0  0  0  0               V2000
  108.8899  123.2092  139.4118 P   0  0  1  0  0
  107.1270  122.4631  141.5629 P   0  0  1  0  0
  107.9213  125.5736  137.0865 O   0  0  0  0  0
  106.1117  125.9858  134.3587 O   0  0  0  0  0
  106.2988  123.1900  135.1055 O   0  0  0  0  0
  108.1089  122.8208  138.0722 O   0  0  0  0  0
  110.6755  117.0446  143.0050 O   0  0  0  0  0
  108.4622  122.2996  140.6800 O   0  0  0  0  0
  108.3836  117.8705  144.3097 O   0  0  0  0  0
  106.4493  121.0258  141.8925 O   0  0  0  0  0
  108.0947  120.7774  144.2528 O   0  0  0  0  0
  110.4504  122.9849  139.0693 O   0  0  0  0  0
  108.6196  124.7777  139.6937 O   0  0  0  0  0
  107.2223  123.3364  142.8989 O   0  0  0  0  0
  112.8181  114.0617  137.7349 O   0  0  0  0  0
  106.1870  123.4999  140.8368 O   0  0  0  0  0
  112.5175  118.5035  137.6771 O   0  0  0  0  0
  109.3019  126.9265  135.7295 N   0  0  0  0  0
  109.4447  116.2701  140.5792 N   0  0  0  0  0
  110.9738  128.5212  135.4880 N   0  0  0  0  0
  110.8053  124.9642  135.9722 N   0  0  0  0  0
  110.2827  113.8442  139.2091 N   0  0  0  0  0
  111.0999  117.4470  139.1454 N   0  0  0  0  0
  113.1345  125.5100  135.3605 N   0  0  0  0  0
  112.7873  116.2821  137.7505 N   0  0  0  0  0
  113.6240  127.7196  134.5594 N   0  0  0  0  0
  107.3960  125.4774  134.7728 C   0  0  0  0  0
  107.2978  124.1226  135.5135 C   0  0  0  0  0
  107.9484  126.3815  135.8900 C   0  0  0  0  0
  106.9114  124.5861  136.8808 C   0  0  0  0  0
  106.8300  123.4094  137.8822 C   0  0  0  0  0
  110.4893  126.2881  135.7606 C   0  0  0  0  0
  109.6777  128.2705  135.6155 C   0  0  0  0  0
  111.4421  127.2664  135.4563 C   0  0  0  0  0
  109.9148  118.0397  142.3868 C   0  0  0  0  0
  108.9554  117.5067  141.3114 C   0  0  0  0  0
  109.2018  118.7556  143.5372 C   0  0  0  0  0
  108.9013  115.0256  140.9335 C   0  0  0  0  0
  108.4262  120.0264  143.0919 C   0  0  0  0  0
  110.5264  116.2865  139.5904 C   0  0  0  0  0
  109.2460  113.7977  140.2079 C   0  0  0  0  0
  110.9891  115.0201  139.0106 C   0  0  0  0  0
  112.7639  126.8312  135.1390 C   0  0  0  0  0
  107.1310  119.7994  142.3007 C   0  0  0  0  0
  108.0239  114.8905  142.0828 C   0  0  0  0  0
  108.6449  112.5826  140.5322 C   0  0  0  0  0
  107.4956  113.6476  142.4720 C   0  0  0  0  0
  107.7966  112.4691  141.6926 C   0  0  0  0  0
  112.1438  124.6535  135.8439 C   0  0  0  0  0
  112.2748  115.0632  138.1395 C   0  0  0  0  0
  112.1659  117.4682  138.1767 C   0  0  0  0  0
  106.6223  113.5716  143.7421 C   0  0  0  0  0
  107.2803  111.1037  142.0680 C   0  0  0  0  0
  1  6  1  0
  1  8  1  0
  1 12  1  0
  1 13  1  0
  2  8  1  0
  2 10  1  0
  2 14  1  0
  2 16  1  0
  3 29  1  0
  3 30  1  0
  4 27  1  0
  5 28  1  0
  6 31  1  0
  7 35  1  0
  9 37  1  0
 10 44  1  0
 11 39  1  0
 15 50  2  0
 17 51  2  0
 18 29  1  0
 18 32  1  0
 18 33  1  0
 19 36  1  0
 19 38  4  0
 19 40  4  0
 20 33  2  0
 20 34  1  0
 21 32  4  0
 21 49  4  0
 22 41  4  0
 22 42  4  0
 23 40  1  0
 23 51  1  0
 24 43  4  0
 24 49  4  0
 25 50  1  0
 25 51  1  0
 26 43  1  0
 27 28  1  0
 27 29  1  0
 28 30  1  0
 30 31  1  0
 32 34  4  0
 34 43  4  0
 35 36  1  0
 35 37  1  0
 37 39  1  0
 38 41  4  0
 38 45  4  0
 39 44  1  0
 40 42  4  0
 41 46  4  0
 42 50  1  0
 45 47  4  0
 46 48  4  0
 47 48  4  0
 47 52  1  0
 48 53  1  0
M  END
$$$$
