inp8.mol2
     Hgene          

 53 58  0  0  0  0               V2000
  111.5665  114.5327  134.6534 P   0  0  1  0  0
  109.4455  113.0002  136.1381 P   0  0  1  0  0
  114.6830  116.3988  136.0536 O   0  0  0  0  0
  115.7560  118.7878  137.9626 O   0  0  0  0  0
  113.0616  118.9734  137.6611 O   0  0  0  0  0
  112.2138  115.7906  135.4821 O   0  0  0  0  0
  108.5526  116.6240  140.6332 O   0  0  0  0  0
  110.0410  114.1472  135.1398 O   0  0  0  0  0
  112.0833  116.2774  139.6447 O   0  0  0  0  0
  110.4379  112.6667  137.4035 O   0  0  0  0  0
  108.8652  114.5950  138.8565 O   0  0  0  0  0
  111.5110  114.9781  133.0983 O   0  0  0  0  0
  112.6387  113.3402  134.6028 O   0  0  0  0  0
  107.9573  113.3226  136.6752 O   0  0  0  0  0
  106.8024  123.3997  139.6646 O   0  0  0  0  0
  109.3239  111.7194  135.1950 O   0  0  0  0  0
  109.8210  121.6694  136.7538 O   0  0  0  0  0
  116.2498  117.2932  134.6676 N   0  0  0  0  0
  109.3914  119.4486  140.9733 N   0  0  0  0  0
  117.6800  116.9719  132.9212 N   0  0  0  0  0
  114.1212  117.3123  133.3483 N   0  0  0  0  0
  107.3554  121.4024  141.6236 N   0  0  0  0  0
  109.7535  120.7828  138.8197 N   0  0  0  0  0
  114.6352  118.0470  131.0386 N   0  0  0  0  0
  108.2801  122.6219  138.1515 N   0  0  0  0  0
  116.9378  117.8532  130.3309 N   0  0  0  0  0
  115.2332  118.6358  136.6528 C   0  0  0  0  0
  113.7518  118.2302  136.6723 C   0  0  0  0  0
  115.7658  117.3391  136.0390 C   0  0  0  0  0
  113.8167  116.7598  137.0863 C   0  0  0  0  0
  112.5734  115.8873  136.8990 C   0  0  0  0  0
  115.4965  117.2715  133.5588 C   0  0  0  0  0
  117.5786  117.0689  134.2279 C   0  0  0  0  0
  116.4343  117.3185  132.5474 C   0  0  0  0  0
  109.7880  117.0034  140.0254 C   0  0  0  0  0
  110.3640  118.2730  140.7061 C   0  0  0  0  0
  110.7472  115.7860  139.8069 C   0  0  0  0  0
  108.6433  119.3279  142.1595 C   0  0  0  0  0
  110.2411  114.8844  138.6264 C   0  0  0  0  0
  109.1470  120.5800  140.0755 C   0  0  0  0  0
  107.6027  120.3281  142.4947 C   0  0  0  0  0
  108.0706  121.5408  140.4301 C   0  0  0  0  0
  115.9771  117.7486  131.2732 C   0  0  0  0  0
  111.0760  113.5875  138.3480 C   0  0  0  0  0
  108.8345  118.2337  143.0598 C   0  0  0  0  0
  106.8615  120.1871  143.6745 C   0  0  0  0  0
  108.0565  118.0847  144.2052 C   0  0  0  0  0
  107.0622  119.0762  144.5349 C   0  0  0  0  0
  113.7678  117.8280  132.1124 C   0  0  0  0  0
  107.6883  122.6012  139.4178 C   0  0  0  0  0
  109.3178  121.6924  137.8497 C   0  0  0  0  0
  108.3061  116.8707  145.0645 C   0  0  0  0  0
  106.2505  118.9614  145.7922 C   0  0  0  0  0
  1  6  1  0
  1  8  1  0
  1 12  1  0
  1 13  1  0
  2  8  1  0
  2 10  1  0
  2 14  1  0
  2 16  1  0
  3 29  1  0
  3 30  1  0
  4 27  1  0
  5 28  1  0
  6 31  1  0
  7 35  1  0
  9 37  1  0
 10 44  1  0
 11 39  1  0
 15 50  2  0
 17 51  2  0
 18 29  1  0
 18 32  1  0
 18 33  1  0
 19 36  1  0
 19 38  4  0
 19 40  4  0
 20 33  2  0
 20 34  1  0
 21 32  4  0
 21 49  4  0
 22 41  4  0
 22 42  4  0
 23 40  1  0
 23 51  1  0
 24 43  4  0
 24 49  4  0
 25 50  1  0
 25 51  1  0
 26 43  1  0
 27 28  1  0
 27 29  1  0
 28 30  1  0
 30 31  1  0
 32 34  4  0
 34 43  4  0
 35 36  1  0
 35 37  1  0
 37 39  1  0
 38 41  4  0
 38 45  4  0
 39 44  1  0
 40 42  4  0
 41 46  4  0
 42 50  1  0
 45 47  4  0
 46 48  4  0
 47 48  4  0
 47 52  1  0
 48 53  1  0
M  END
$$$$
