inp8.mol2
     Hgene          

 53 58  0  0  0  0               V2000
  113.5944  118.1660  135.2412 P   0  0  1  0  0
  115.1036  119.6071  137.0769 P   0  0  1  0  0
  115.6150  115.6318  132.8962 O   0  0  0  0  0
  117.7949  115.3365  130.5560 O   0  0  0  0  0
  117.5929  118.0233  131.1999 O   0  0  0  0  0
  114.6432  117.7851  134.0668 O   0  0  0  0  0
  111.4956  125.5041  137.1052 O   0  0  0  0  0
  113.8649  119.4614  136.1349 O   0  0  0  0  0
  113.6685  124.5983  135.8583 O   0  0  0  0  0
  115.9289  120.9556  137.0181 O   0  0  0  0  0
  113.1507  122.0398  138.6214 O   0  0  0  0  0
  112.3079  118.6307  134.4597 O   0  0  0  0  0
  113.4846  116.8572  136.1433 O   0  0  0  0  0
  114.4448  119.3919  138.5107 O   0  0  0  0  0
  105.9148  123.1815  139.9105 O   0  0  0  0  0
  115.9606  118.3626  136.7374 O   0  0  0  0  0
  109.3770  120.4626  140.8757 O   0  0  0  0  0
  114.2917  114.5935  131.3550 N   0  0  0  0  0
  109.6188  123.1140  136.8925 N   0  0  0  0  0
  112.4256  113.2905  131.0702 N   0  0  0  0  0
  113.1436  116.8102  131.0656 N   0  0  0  0  0
  106.8224  123.6988  137.3205 N   0  0  0  0  0
  109.4855  121.6019  138.9322 N   0  0  0  0  0
  110.8096  116.5950  130.3027 N   0  0  0  0  0
  107.5762  121.7733  140.4771 N   0  0  0  0  0
  109.8517  114.4574  129.9279 N   0  0  0  0  0
  116.4799  115.8989  130.7213 C   0  0  0  0  0
  116.5046  117.2008  131.5515 C   0  0  0  0  0
  115.6909  114.9389  131.6451 C   0  0  0  0  0
  116.5831  116.6788  132.9849 C   0  0  0  0  0
  116.1000  117.6311  134.1006 C   0  0  0  0  0
  113.2316  115.4319  131.1174 C   0  0  0  0  0
  113.7421  113.3034  131.3340 C   0  0  0  0  0
  112.1375  114.5963  130.8525 C   0  0  0  0  0
  111.9012  124.1416  137.3670 C   0  0  0  0  0
  111.0941  122.9642  136.7160 C   0  0  0  0  0
  113.4007  123.9694  137.1355 C   0  0  0  0  0
  108.9292  124.0538  136.0906 C   0  0  0  0  0
  113.8208  122.4516  137.4129 C   0  0  0  0  0
  108.9003  122.4874  138.0135 C   0  0  0  0  0
  107.5095  124.3204  136.2353 C   0  0  0  0  0
  107.5537  122.9726  138.2499 C   0  0  0  0  0
  110.9107  115.2139  130.3748 C   0  0  0  0  0
  115.4037  122.2437  137.3687 C   0  0  0  0  0
  109.6442  124.8517  135.1148 C   0  0  0  0  0
  106.8249  125.2046  135.3898 C   0  0  0  0  0
  108.9821  125.7909  134.3373 C   0  0  0  0  0
  107.5571  125.9671  134.4161 C   0  0  0  0  0
  111.9649  117.3130  130.5578 C   0  0  0  0  0
  106.9413  122.6664  139.6216 C   0  0  0  0  0
  108.8291  121.2312  140.1450 C   0  0  0  0  0
  109.8677  126.4860  133.3163 C   0  0  0  0  0
  106.7709  126.8428  133.4730 C   0  0  0  0  0
  1  6  1  0
  1  8  1  0
  1 12  1  0
  1 13  1  0
  2  8  1  0
  2 10  1  0
  2 14  1  0
  2 16  1  0
  3 29  1  0
  3 30  1  0
  4 27  1  0
  5 28  1  0
  6 31  1  0
  7 35  1  0
  9 37  1  0
 10 44  1  0
 11 39  1  0
 15 50  2  0
 17 51  2  0
 18 29  1  0
 18 32  1  0
 18 33  1  0
 19 36  1  0
 19 38  4  0
 19 40  4  0
 20 33  2  0
 20 34  1  0
 21 32  4  0
 21 49  4  0
 22 41  4  0
 22 42  4  0
 23 40  1  0
 23 51  1  0
 24 43  4  0
 24 49  4  0
 25 50  1  0
 25 51  1  0
 26 43  1  0
 27 28  1  0
 27 29  1  0
 28 30  1  0
 30 31  1  0
 32 34  4  0
 34 43  4  0
 35 36  1  0
 35 37  1  0
 37 39  1  0
 38 41  4  0
 38 45  4  0
 39 44  1  0
 40 42  4  0
 41 46  4  0
 42 50  1  0
 45 47  4  0
 46 48  4  0
 47 48  4  0
 47 52  1  0
 48 53  1  0
M  END
$$$$
