@<TRIPOS>COMMENT
   inp11.mol2              3    of   10
                  SCORE =  -239.3587
               dG-SCORE =    -5.7293
      LIGAND_EFFICIENCY =    -1.0880
  NUMBER_OF_HEAVY_ATOMS =         22
                    ASA =  -198.4983
                    ELE =     0.0000
                    HYD =   -37.1660
                    VDW =    -3.6943
                   RMSD =    27.2895
 MOLECULAR_WEIGHT = 332.29
@<TRIPOS>MOLECULE
inp11.mol2                                                                      
   43   44    0    0    0
SMALL       
GASTEIGER      
 
@<TRIPOS>ATOM
    1 P        93.5014   72.4870   77.2497 P.3      1 UNK          0.0000
    2 O        92.6957   76.8755   76.4881 O.3      1 UNK          0.0000
    3 O        93.7818   74.0688   77.1111 O.3      1 UNK          0.0000
    4 O        94.1571   71.4375   76.2273 O.3      1 UNK          0.0000
    5 H        94.6623   71.9256   75.5575 H        1 UNK          0.0000
    6 O        92.8127   72.9147   75.8614 O.3      1 UNK          0.0000
    7 H        93.4102   73.4951   75.3654 H        1 UNK          0.0000
    8 O        95.0739   72.5473   77.5752 O.3      1 UNK          0.0000
    9 H        95.3538   71.6755   77.9000 H        1 UNK          0.0000
   10 O        92.0193   76.7126   71.4269 O.2      1 UNK          0.0000
   11 N        92.2148   78.8252   75.1569 N.ar     1 UNK          0.0000
   12 N        90.0296   77.5342   70.8105 N.am     1 UNK          0.0000
   13 H        89.9744   76.9027   70.0158 H        1 UNK          0.0000
   14 H        89.2693   78.1699   70.9685 H        1 UNK          0.0000
   15 C        93.0624   77.5812   78.6135 C.3      1 UNK          0.0000
   16 H        93.8761   77.8738   79.2718 H        1 UNK          0.0000
   17 C        92.7684   78.8036   77.7314 C.3      1 UNK          0.0000
   18 H        91.7226   79.0445   77.8771 H        1 UNK          0.0000
   19 C        93.4675   76.4587   77.6160 C.3      1 UNK          0.0000
   20 H        94.5329   76.5505   77.3561 H        1 UNK          0.0000
   21 C        93.0103   78.2673   76.2799 C.3      1 UNK          0.0000
   22 H        94.0802   78.3437   76.0356 H        1 UNK          0.0000
   23 C        91.8183   77.2238   79.4532 C.3      1 UNK          0.0000
   24 H        91.9783   76.3779   80.1242 H        1 UNK          0.0000
   25 H        90.9862   76.9512   78.8017 H        1 UNK          0.0000
   26 H        91.5580   78.0868   80.0647 H        1 UNK          0.0000
   27 C        93.5903   80.0581   78.1041 C.3      1 UNK          0.0000
   28 H        93.3556   80.3871   79.1277 H        1 UNK          0.0000
   29 H        94.6685   79.8576   78.0476 H        1 UNK          0.0000
   30 H        93.3627   80.8905   77.4258 H        1 UNK          0.0000
   31 C        93.1407   74.9822   78.0088 C.3      1 UNK          0.0000
   32 H        93.4908   74.7478   79.0176 H        1 UNK          0.0000
   33 H        92.0652   74.8355   77.9931 H        1 UNK          0.0000
   34 C        92.1785   78.1019   73.9001 C.ar     1 UNK          0.0000
   35 H        92.8956   77.2801   73.8058 H        1 UNK          0.0000
   36 C        91.4220   80.0199   75.1987 C.ar     1 UNK          0.0000
   37 H        91.5658   80.6953   76.0543 H        1 UNK          0.0000
   38 C        91.2060   78.3912   72.8975 C.ar     1 UNK          0.0000
   39 C        90.4492   80.3230   74.2139 C.ar     1 UNK          0.0000
   40 H        89.8101   81.1941   74.3024 H        1 UNK          0.0000
   41 C        90.2825   79.4594   73.0725 C.ar     1 UNK          0.0000
   42 H        89.4909   79.6499   72.3688 H        1 UNK          0.0000
   43 C        91.1196   77.4974   71.6562 C.2      1 UNK          0.0000
@<TRIPOS>BOND
     1     1     3   1 
     2     1     4   1 
     3     1     6   1 
     4     1     8   1 
     5     2    19   1 
     6     2    21   1 
     7     3    31   1 
     8     4     5   1 
     9     6     7   1 
    10     8     9   1 
    11    10    43   2 
    12    11    21   1 
    13    11    34   ar
    14    11    36   ar
    15    12    13   1 
    16    12    14   1 
    17    12    43   am
    18    15    16   1 
    19    15    17   1 
    20    15    19   1 
    21    15    23   1 
    22    17    18   1 
    23    17    21   1 
    24    17    27   1 
    25    19    20   1 
    26    19    31   1 
    27    21    22   1 
    28    23    24   1 
    29    23    25   1 
    30    23    26   1 
    31    27    28   1 
    32    27    29   1 
    33    27    30   1 
    34    31    32   1 
    35    31    33   1 
    36    34    35   1 
    37    34    38   ar
    38    36    37   1 
    39    36    39   ar
    40    38    41   ar
    41    38    43   1 
    42    39    40   1 
    43    39    41   ar
    44    41    42   1 
 
