inp11.mol2
     Hgene          

 22 23  0  0  0  0               V2000
   91.9025   77.3789   70.0735 P   0  0  2  0  0
   94.1959   75.1678   73.0249 O   0  0  0  0  0
   93.1558   76.7684   70.8829 O   0  0  0  0  0
   91.5428   78.9396   70.1498 O   0  0  0  0  0
   91.5041   77.5718   71.6137 O   0  0  0  0  0
   93.1540   78.1092   69.3858 O   0  0  0  0  0
   92.0551   77.4085   76.8446 O   0  0  0  0  0
   94.5956   74.4232   75.2423 N   0  0  0  0  0
   91.5563   76.2956   78.6994 N   0  0  0  0  0
   95.2804   73.6426   71.6204 C   0  0  0  0  0
   95.6268   73.3317   73.1069 C   0  0  0  0  0
   94.6834   75.0752   71.6777 C   0  0  0  0  0
   95.1903   74.6058   73.8875 C   0  0  0  0  0
   94.3382   72.5640   71.0163 C   0  0  0  0  0
   97.1301   73.0072   73.3020 C   0  0  0  0  0
   93.5323   75.3950   70.6911 C   0  0  0  0  0
   93.7414   75.4207   75.7513 C   0  0  0  0  0
   94.8559   73.3015   76.0524 C   0  0  0  0  0
   93.1299   75.2971   77.0152 C   0  0  0  0  0
   94.2482   73.1657   77.3118 C   0  0  0  0  0
   93.3846   74.1559   77.7958 C   0  0  0  0  0
   92.2239   76.3969   77.4979 C   0  0  0  0  0
  1  3  1  0
  1  4  1  0
  1  5  1  0
  1  6  1  0
  2 12  1  0
  2 13  1  0
  3 16  1  0
  7 22  2  0
  8 13  1  0
  8 17  4  0
  8 18  4  0
  9 22  1  0
 10 11  1  0
 10 12  1  0
 10 14  1  0
 11 13  1  0
 11 15  1  0
 12 16  1  0
 17 19  4  0
 18 20  4  0
 19 21  4  0
 19 22  1  0
 20 21  4  0
M  END
$$$$
