@<TRIPOS>COMMENT
   inp11.mol2              4    of   10
                  SCORE =  -222.0738
               dG-SCORE =    -5.7147
      LIGAND_EFFICIENCY =    -1.0094
  NUMBER_OF_HEAVY_ATOMS =         22
                    ASA =  -162.2082
                    ELE =     0.0000
                    HYD =   -59.8656
                    VDW =     0.0000
                   RMSD =    28.5264
 MOLECULAR_WEIGHT = 332.29
@<TRIPOS>MOLECULE
inp11.mol2                                                                      
   43   44    0    0    0
SMALL       
GASTEIGER      
 
@<TRIPOS>ATOM
    1 P        91.9025   77.3789   70.0735 P.3      1 UNK          0.0000
    2 O        94.1959   75.1678   73.0249 O.3      1 UNK          0.0000
    3 O        93.1558   76.7684   70.8829 O.3      1 UNK          0.0000
    4 O        91.5428   78.9396   70.1498 O.3      1 UNK          0.0000
    5 H        92.1674   79.3775   70.7494 H        1 UNK          0.0000
    6 O        91.5041   77.5718   71.6137 O.3      1 UNK          0.0000
    7 H        92.3065   77.8252   72.0992 H        1 UNK          0.0000
    8 O        93.1540   78.1092   69.3858 O.3      1 UNK          0.0000
    9 H        92.8177   78.7397   68.7263 H        1 UNK          0.0000
   10 O        92.0551   77.4085   76.8446 O.2      1 UNK          0.0000
   11 N        94.5956   74.4232   75.2423 N.ar     1 UNK          0.0000
   12 N        91.5563   76.2956   78.6994 N.am     1 UNK          0.0000
   13 H        90.9522   77.0507   78.9940 H        1 UNK          0.0000
   14 H        91.6577   75.4790   79.2826 H        1 UNK          0.0000
   15 C        95.2804   73.6426   71.6204 C.3      1 UNK          0.0000
   16 H        96.1939   73.6729   71.0109 H        1 UNK          0.0000
   17 C        95.6268   73.3317   73.1069 C.3      1 UNK          0.0000
   18 H        95.0293   72.4732   73.4420 H        1 UNK          0.0000
   19 C        94.6834   75.0752   71.6777 C.3      1 UNK          0.0000
   20 H        95.4901   75.8061   71.5267 H        1 UNK          0.0000
   21 C        95.1903   74.6058   73.8875 C.3      1 UNK          0.0000
   22 H        96.0333   75.3075   73.9739 H        1 UNK          0.0000
   23 C        94.3382   72.5640   71.0163 C.3      1 UNK          0.0000
   24 H        94.1383   72.7642   69.9559 H        1 UNK          0.0000
   25 H        93.3798   72.5278   71.5495 H        1 UNK          0.0000
   26 H        94.8001   71.5704   71.0796 H        1 UNK          0.0000
   27 C        97.1301   73.0072   73.3020 C.3      1 UNK          0.0000
   28 H        97.4060   72.1059   72.7379 H        1 UNK          0.0000
   29 H        97.7600   73.8341   72.9480 H        1 UNK          0.0000
   30 H        97.3698   72.8286   74.3571 H        1 UNK          0.0000
   31 C        93.5323   75.3950   70.6911 C.3      1 UNK          0.0000
   32 H        93.8709   75.2407   69.6583 H        1 UNK          0.0000
   33 H        92.6722   74.7413   70.8844 H        1 UNK          0.0000
   34 C        93.7414   75.4207   75.7513 C.ar     1 UNK          0.0000
   35 H        93.5580   76.3000   75.1306 H        1 UNK          0.0000
   36 C        94.8559   73.3015   76.0524 C.ar     1 UNK          0.0000
   37 H        95.5320   72.5304   75.6851 H        1 UNK          0.0000
   38 C        93.1299   75.2971   77.0152 C.ar     1 UNK          0.0000
   39 C        94.2482   73.1657   77.3118 C.ar     1 UNK          0.0000
   40 H        94.4532   72.2871   77.9179 H        1 UNK          0.0000
   41 C        93.3846   74.1559   77.7958 C.ar     1 UNK          0.0000
   42 H        92.9285   74.0336   78.7753 H        1 UNK          0.0000
   43 C        92.2239   76.3969   77.4979 C.2      1 UNK          0.0000
@<TRIPOS>BOND
     1     1     3   1 
     2     1     4   1 
     3     1     6   1 
     4     1     8   1 
     5     2    19   1 
     6     2    21   1 
     7     3    31   1 
     8     4     5   1 
     9     6     7   1 
    10     8     9   1 
    11    10    43   2 
    12    11    21   1 
    13    11    34   ar
    14    11    36   ar
    15    12    13   1 
    16    12    14   1 
    17    12    43   am
    18    15    16   1 
    19    15    17   1 
    20    15    19   1 
    21    15    23   1 
    22    17    18   1 
    23    17    21   1 
    24    17    27   1 
    25    19    20   1 
    26    19    31   1 
    27    21    22   1 
    28    23    24   1 
    29    23    25   1 
    30    23    26   1 
    31    27    28   1 
    32    27    29   1 
    33    27    30   1 
    34    31    32   1 
    35    31    33   1 
    36    34    35   1 
    37    34    38   ar
    38    36    37   1 
    39    36    39   ar
    40    38    41   ar
    41    38    43   1 
    42    39    40   1 
    43    39    41   ar
    44    41    42   1 
 
