inp11.mol2
     Hgene          

 22 23  0  0  0  0               V2000
   89.5562   85.1383   76.5589 P   0  0  2  0  0
   93.3572   83.8116   78.3284 O   0  0  0  0  0
   90.7707   85.0607   77.6133 O   0  0  0  0  0
   88.1634   84.4200   76.8582 O   0  0  0  0  0
   89.8813   83.5685   76.6571 O   0  0  0  0  0
   88.9761   86.0144   77.7778 O   0  0  0  0  0
   91.9711   79.0675   78.6024 O   0  0  0  0  0
   94.8659   82.1306   79.1779 N   0  0  0  0  0
   93.3227   77.4720   78.0372 N   0  0  0  0  0
   94.4807   85.8580   78.2971 C   0  0  0  0  0
   95.3944   84.6978   78.7531 C   0  0  0  0  0
   93.0746   85.2183   78.3866 C   0  0  0  0  0
   94.4232   83.5878   79.2611 C   0  0  0  0  0
   94.9648   86.3708   76.9197 C   0  0  0  0  0
   96.4053   85.2793   79.7497 C   0  0  0  0  0
   92.0416   85.6603   77.3141 C   0  0  0  0  0
   93.8695   81.1229   79.0664 C   0  0  0  0  0
   96.2428   81.7598   79.1288 C   0  0  0  0  0
   94.2309   79.7344   78.7834 C   0  0  0  0  0
   96.6247   80.3739   78.9412 C   0  0  0  0  0
   95.6186   79.4069   78.7298 C   0  0  0  0  0
   93.1256   78.7619   78.4971 C   0  0  0  0  0
  1  3  1  0
  1  4  1  0
  1  5  1  0
  1  6  1  0
  2 12  1  0
  2 13  1  0
  3 16  1  0
  7 22  2  0
  8 13  1  0
  8 17  4  0
  8 18  4  0
  9 22  1  0
 10 11  1  0
 10 12  1  0
 10 14  1  0
 11 13  1  0
 11 15  1  0
 12 16  1  0
 17 19  4  0
 18 20  4  0
 19 21  4  0
 19 22  1  0
 20 21  4  0
M  END
$$$$
