@<TRIPOS>COMMENT
   inp11.mol2              6    of   10
                  SCORE =  -253.2654
               dG-SCORE =    -6.1644
      LIGAND_EFFICIENCY =    -1.1512
  NUMBER_OF_HEAVY_ATOMS =         22
                    ASA =  -217.5815
                    ELE =     0.0000
                    HYD =   -35.6839
                    VDW =     0.0000
                   RMSD =    29.5550
 MOLECULAR_WEIGHT = 332.29
@<TRIPOS>MOLECULE
inp11.mol2                                                                      
   43   44    0    0    0
SMALL       
GASTEIGER      
 
@<TRIPOS>ATOM
    1 P        89.3056   79.4367   72.7991 P.3      1 UNK          0.0000
    2 O        90.3326   82.3304   75.8701 O.3      1 UNK          0.0000
    3 O        89.1567   80.5891   73.9164 O.3      1 UNK          0.0000
    4 O        88.7696   77.9485   73.0616 O.3      1 UNK          0.0000
    5 H        88.4006   77.9004   73.9577 H        1 UNK          0.0000
    6 O        90.2372   78.9361   74.0030 O.3      1 UNK          0.0000
    7 H        89.7862   79.1489   74.8367 H        1 UNK          0.0000
    8 O        87.7150   79.6031   72.9222 O.3      1 UNK          0.0000
    9 H        87.2915   78.9450   72.3449 H        1 UNK          0.0000
   10 O        92.5131   78.9897   78.7475 O.2      1 UNK          0.0000
   11 N        91.5383   83.0006   77.8009 N.ar     1 UNK          0.0000
   12 N        94.3574   79.4773   79.8826 N.am     1 UNK          0.0000
   13 H        94.5229   78.4930   80.0430 H        1 UNK          0.0000
   14 H        95.0043   80.1596   80.2474 H        1 UNK          0.0000
   15 C        89.6945   84.3022   74.7838 C.3      1 UNK          0.0000
   16 H        88.7457   84.8433   74.6659 H        1 UNK          0.0000
   17 C        90.3491   84.6420   76.1558 C.3      1 UNK          0.0000
   18 H        91.3805   84.9795   75.9869 H        1 UNK          0.0000
   19 C        89.3812   82.7852   74.8958 C.3      1 UNK          0.0000
   20 H        88.3625   82.6574   75.2880 H        1 UNK          0.0000
   21 C        90.3637   83.2916   76.9301 C.3      1 UNK          0.0000
   22 H        89.4520   83.1907   77.5376 H        1 UNK          0.0000
   23 C        90.6191   84.6943   73.5976 C.3      1 UNK          0.0000
   24 H        90.1307   84.4964   72.6348 H        1 UNK          0.0000
   25 H        91.5646   84.1381   73.6280 H        1 UNK          0.0000
   26 H        90.8538   85.7659   73.6304 H        1 UNK          0.0000
   27 C        89.5741   85.7488   76.9159 C.3      1 UNK          0.0000
   28 H        89.5807   86.6862   76.3433 H        1 UNK          0.0000
   29 H        88.5276   85.4570   77.0756 H        1 UNK          0.0000
   30 H        90.0209   85.9521   77.8966 H        1 UNK          0.0000
   31 C        89.5253   81.9423   73.6038 C.3      1 UNK          0.0000
   32 H        88.8643   82.3391   72.8223 H        1 UNK          0.0000
   33 H        90.5611   81.9732   73.2423 H        1 UNK          0.0000
   34 C        91.8547   81.6594   78.0920 C.ar     1 UNK          0.0000
   35 H        91.2132   80.8818   77.6726 H        1 UNK          0.0000
   36 C        92.3475   84.0061   78.3634 C.ar     1 UNK          0.0000
   37 H        92.1048   85.0500   78.1681 H        1 UNK          0.0000
   38 C        92.9651   81.3173   78.8899 C.ar     1 UNK          0.0000
   39 C        93.4594   83.6766   79.1564 C.ar     1 UNK          0.0000
   40 H        94.0785   84.4670   79.5727 H        1 UNK          0.0000
   41 C        93.7739   82.3379   79.4198 C.ar     1 UNK          0.0000
   42 H        94.6360   82.1046   80.0401 H        1 UNK          0.0000
   43 C        93.2506   79.8649   79.1585 C.2      1 UNK          0.0000
@<TRIPOS>BOND
     1     1     3   1 
     2     1     4   1 
     3     1     6   1 
     4     1     8   1 
     5     2    19   1 
     6     2    21   1 
     7     3    31   1 
     8     4     5   1 
     9     6     7   1 
    10     8     9   1 
    11    10    43   2 
    12    11    21   1 
    13    11    34   ar
    14    11    36   ar
    15    12    13   1 
    16    12    14   1 
    17    12    43   am
    18    15    16   1 
    19    15    17   1 
    20    15    19   1 
    21    15    23   1 
    22    17    18   1 
    23    17    21   1 
    24    17    27   1 
    25    19    20   1 
    26    19    31   1 
    27    21    22   1 
    28    23    24   1 
    29    23    25   1 
    30    23    26   1 
    31    27    28   1 
    32    27    29   1 
    33    27    30   1 
    34    31    32   1 
    35    31    33   1 
    36    34    35   1 
    37    34    38   ar
    38    36    37   1 
    39    36    39   ar
    40    38    41   ar
    41    38    43   1 
    42    39    40   1 
    43    39    41   ar
    44    41    42   1 
 
