inp11.mol2
     Hgene          

 22 23  0  0  0  0               V2000
   89.5057   78.6141   73.5944 P   0  0  2  0  0
   87.8225   82.4101   72.7257 O   0  0  0  0  0
   89.4915   80.1745   73.2213 O   0  0  0  0  0
   89.5128   77.5715   72.3666 O   0  0  0  0  0
   88.1410   78.8907   72.8319 O   0  0  0  0  0
   90.9616   78.8629   72.9601 O   0  0  0  0  0
   84.8286   80.6713   68.9223 O   0  0  0  0  0
   86.2295   83.7352   71.5838 N   0  0  0  0  0
   82.8921   81.6473   68.5348 N   0  0  0  0  0
   88.7698   83.7787   74.3531 C   0  0  0  0  0
   87.7853   84.6029   73.4765 C   0  0  0  0  0
   89.0164   82.5091   73.4901 C   0  0  0  0  0
   87.5551   83.7091   72.2129 C   0  0  0  0  0
   88.2080   83.5627   75.7899 C   0  0  0  0  0
   88.3417   85.9974   73.0892 C   0  0  0  0  0
   89.2462   81.1737   74.2150 C   0  0  0  0  0
   85.8003   82.6441   70.7262 C   0  0  0  0  0
   85.3429   84.8276   71.7326 C   0  0  0  0  0
   84.5420   82.7054   70.0822 C   0  0  0  0  0
   84.1171   84.8997   71.0425 C   0  0  0  0  0
   83.6844   83.8068   70.2493 C   0  0  0  0  0
   84.1104   81.5957   69.1529 C   0  0  0  0  0
  1  3  1  0
  1  4  1  0
  1  5  1  0
  1  6  1  0
  2 12  1  0
  2 13  1  0
  3 16  1  0
  7 22  2  0
  8 13  1  0
  8 17  4  0
  8 18  4  0
  9 22  1  0
 10 11  1  0
 10 12  1  0
 10 14  1  0
 11 13  1  0
 11 15  1  0
 12 16  1  0
 17 19  4  0
 18 20  4  0
 19 21  4  0
 19 22  1  0
 20 21  4  0
M  END
$$$$
