inp11.mol2
     Hgene          

 22 23  0  0  0  0               V2000
   92.6239   78.2147   78.4494 P   0  0  2  0  0
   93.8945   82.3462   78.6799 O   0  0  0  0  0
   93.6700   79.3981   78.2247 O   0  0  0  0  0
   91.7945   77.6837   77.1905 O   0  0  0  0  0
   91.8037   79.5593   78.1436 O   0  0  0  0  0
   93.7047   77.6099   77.4372 O   0  0  0  0  0
   89.6708   84.3039   76.6759 O   0  0  0  0  0
   93.7202   84.7316   78.2477 N   0  0  0  0  0
   89.0998   86.3985   77.0965 N   0  0  0  0  0
   95.8874   82.0203   79.7770 C   0  0  0  0  0
   95.6537   83.5284   79.4642 C   0  0  0  0  0
   94.9060   81.3347   78.8233 C   0  0  0  0  0
   94.5982   83.5552   78.3372 C   0  0  0  0  0
   95.5396   81.6692   81.2465 C   0  0  0  0  0
   96.9229   84.3301   79.0814 C   0  0  0  0  0
   94.3035   80.0092   79.3348 C   0  0  0  0  0
   92.3926   84.5597   77.6872 C   0  0  0  0  0
   94.0933   86.0783   78.6360 C   0  0  0  0  0
   91.4773   85.6213   77.5477 C   0  0  0  0  0
   93.2187   87.1563   78.4194 C   0  0  0  0  0
   91.9055   86.9446   77.8651 C   0  0  0  0  0
   90.0409   85.3937   77.0785 C   0  0  0  0  0
  1  3  1  0
  1  4  1  0
  1  5  1  0
  1  6  1  0
  2 12  1  0
  2 13  1  0
  3 16  1  0
  7 22  2  0
  8 13  1  0
  8 17  4  0
  8 18  4  0
  9 22  1  0
 10 11  1  0
 10 12  1  0
 10 14  1  0
 11 13  1  0
 11 15  1  0
 12 16  1  0
 17 19  4  0
 18 20  4  0
 19 21  4  0
 19 22  1  0
 20 21  4  0
M  END
$$$$
