inp11.mol2
     Hgene          

 53 58  0  0  0  0               V2000
   94.7169   79.2566   77.8253 P   0  0  1  0  0
   93.7232   78.1213   75.2294 P   0  0  1  0  0
   94.3912   75.8522   78.6481 O   0  0  0  0  0
   92.7971   74.1309   76.1768 O   0  0  0  0  0
   91.0984   76.0048   77.7124 O   0  0  0  0  0
   93.7786   78.9344   79.1053 O   0  0  0  0  0
   90.7415   83.5320   72.2754 O   0  0  0  0  0
   93.8660   79.2139   76.4378 O   0  0  0  0  0
   91.5821   81.0576   71.3593 O   0  0  0  0  0
   92.2795   78.2566   74.5085 O   0  0  0  0  0
   93.8492   79.9666   72.6223 O   0  0  0  0  0
   95.3505   80.7191   78.0565 O   0  0  0  0  0
   95.9524   78.2291   77.8089 O   0  0  0  0  0
   94.9143   78.1581   74.1602 O   0  0  0  0  0
   87.7001   86.6968   77.1528 O   0  0  0  0  0
   93.8253   76.5998   75.6595 O   0  0  0  0  0
   91.5512   84.5811   78.0687 O   0  0  0  0  0
   95.0629   73.5470   78.7145 N   0  0  0  0  0
   89.0377   82.8515   74.4601 N   0  0  0  0  0
   96.4458   71.8702   79.3705 N   0  0  0  0  0
   93.7403   73.6227   80.7975 N   0  0  0  0  0
   86.9629   84.7589   75.0637 N   0  0  0  0  0
   90.2845   83.6255   76.4799 N   0  0  0  0  0
   94.7682   72.3500   82.6681 N   0  0  0  0  0
   89.5133   85.5432   77.8022 N   0  0  0  0  0
   96.6965   71.3756   82.5596 N   0  0  0  0  0
   92.9566   74.2777   77.5908 C   0  0  0  0  0
   92.2669   75.4902   78.2795 C   0  0  0  0  0
   94.4348   74.5885   77.8832 C   0  0  0  0  0
   93.2336   76.6291   78.2954 C   0  0  0  0  0
   92.7972   77.8729   79.1431 C   0  0  0  0  0
   94.7735   73.1988   79.9907 C   0  0  0  0  0
   96.2270   72.8611   78.4876 C   0  0  0  0  0
   95.7625   72.3318   80.4358 C   0  0  0  0  0
   91.2708   82.6180   73.2481 C   0  0  0  0  0
   90.1410   81.9076   74.0629 C   0  0  0  0  0
   92.2218   81.6209   72.5177 C   0  0  0  0  0
   87.9276   83.0464   73.5288 C   0  0  0  0  0
   92.7857   80.4837   73.4136 C   0  0  0  0  0
   89.1391   83.6582   75.6160 C   0  0  0  0  0
   86.9118   84.0480   73.8795 C   0  0  0  0  0
   88.1259   84.6834   75.9019 C   0  0  0  0  0
   95.7875   71.9969   81.8431 C   0  0  0  0  0
   91.7227   79.4082   73.8431 C   0  0  0  0  0
   87.7960   82.3198   72.3153 C   0  0  0  0  0
   85.8274   84.2723   72.9674 C   0  0  0  0  0
   86.6903   82.5453   71.4243 C   0  0  0  0  0
   85.7151   83.5536   71.7545 C   0  0  0  0  0
   93.8346   73.2119   82.1243 C   0  0  0  0  0
   88.3845   85.6952   76.9816 C   0  0  0  0  0
   90.4814   84.5651   77.4865 C   0  0  0  0  0
   86.5900   81.6864   70.1853 C   0  0  0  0  0
   84.5084   83.8134   70.8316 C   0  0  0  0  0
  1  6  1  0
  1  8  1  0
  1 12  1  0
  1 13  1  0
  2  8  1  0
  2 10  1  0
  2 14  1  0
  2 16  1  0
  3 29  1  0
  3 30  1  0
  4 27  1  0
  5 28  1  0
  6 31  1  0
  7 35  1  0
  9 37  1  0
 10 44  1  0
 11 39  1  0
 15 50  2  0
 17 51  2  0
 18 29  1  0
 18 32  1  0
 18 33  1  0
 19 36  1  0
 19 38  4  0
 19 40  4  0
 20 33  2  0
 20 34  1  0
 21 32  4  0
 21 49  4  0
 22 41  4  0
 22 42  4  0
 23 40  1  0
 23 51  1  0
 24 43  4  0
 24 49  4  0
 25 50  1  0
 25 51  1  0
 26 43  1  0
 27 28  1  0
 27 29  1  0
 28 30  1  0
 30 31  1  0
 32 34  4  0
 34 43  4  0
 35 36  1  0
 35 37  1  0
 37 39  1  0
 38 41  4  0
 38 45  4  0
 39 44  1  0
 40 42  4  0
 41 46  4  0
 42 50  1  0
 45 47  4  0
 46 48  4  0
 47 48  4  0
 47 52  1  0
 48 53  1  0
M  END
$$$$
