@<TRIPOS>COMMENT
   inp11.mol2              3    of   10
                  SCORE =  -341.8710
               dG-SCORE =    -6.7455
      LIGAND_EFFICIENCY =    -0.6450
  NUMBER_OF_HEAVY_ATOMS =         53
                    ASA =  -264.2783
                    ELE =     0.0000
                    HYD =   -59.8964
                    VDW =   -17.6963
                   RMSD =    30.5855
 MOLECULAR_WEIGHT = 789.59
@<TRIPOS>MOLECULE
inp11.mol2                                                                      
   90   95    0    0    0
SMALL       
GASTEIGER      
 
@<TRIPOS>ATOM
    1 P        93.3686   78.5658   74.8578 P.3      1 UNK          0.0000
    2 P        93.0168   76.5365   72.7951 P.3      1 UNK          0.0000
    3 O        94.6631   75.1252   75.3032 O.3      1 UNK          0.0000
    4 O        96.1014   73.4272   77.5853 O.3      1 UNK          0.0000
    5 H        96.3494   72.5066   77.7508 H        1 UNK          0.0000
    6 O        97.9428   75.5278   76.7396 O.3      1 UNK          0.0000
    7 H        97.7145   75.2234   77.6312 H        1 UNK          0.0000
    8 O        94.5126   78.1989   75.9318 O.3      1 UNK          0.0000
    9 O        89.0416   81.0210   73.6971 O.3      1 UNK          0.0000
   10 H        89.2988   80.1321   74.0208 H        1 UNK          0.0000
   11 O        92.8098   77.2131   74.2416 O.3      1 UNK          0.0000
   12 O        89.8482   80.3083   70.1382 O.3      1 UNK          0.0000
   13 H        90.6519   79.9412   69.7223 H        1 UNK          0.0000
   14 O        91.8547   76.8795   71.7284 O.3      1 UNK          0.0000
   15 O        90.1016   78.5065   73.3147 O.3      1 UNK          0.0000
   16 H        90.3940   77.5905   73.4918 H        1 UNK          0.0000
   17 O        92.1571   79.2598   75.6441 O.3      1 UNK          0.0000
   18 H        91.8474   78.6157   76.3024 H        1 UNK          0.0000
   19 O        93.8886   79.5405   73.6910 O.3      1 UNK          0.0000
   20 H        94.3180   80.3078   74.0935 H        1 UNK          0.0000
   21 O        94.4612   76.6639   72.1320 O.3      1 UNK          0.0000
   22 H        94.4737   76.0400   71.3853 H        1 UNK          0.0000
   23 O        83.0322   84.3027   73.0912 O.2      1 UNK          0.0000
   24 O        92.8556   75.0047   73.1051 O.3      1 UNK          0.0000
   25 H        93.3562   74.7817   73.9099 H        1 UNK          0.0000
   26 O        84.1332   81.1783   69.9653 O.2      1 UNK          0.0000
   27 N        94.8309   72.8778   74.3765 N.ar     1 UNK          0.0000
   28 N        87.6730   83.1800   72.4293 N.ar     1 UNK          0.0000
   29 N        94.1557   71.1848   72.9714 N.ar     1 UNK          0.0000
   30 N        96.4151   73.9916   72.7915 N.ar     1 UNK          0.0000
   31 N        85.7354   84.7080   73.8908 N.ar     1 UNK          0.0000
   32 H        85.0429   85.2157   74.4128 H        1 UNK          0.0000
   33 N        85.8248   82.1689   71.0846 N.am     1 UNK          0.0000
   34 H        86.4485   81.5340   70.6090 H        1 UNK          0.0000
   35 N        96.3126   73.0665   70.5169 N.ar     1 UNK          0.0000
   36 N        83.4869   82.7746   71.4811 N.am     1 UNK          0.0000
   37 H        82.4875   82.5703   71.3422 H        1 UNK          0.0000
   38 N        94.9350   71.2749   70.0116 N.pl3    1 UNK          0.0000
   39 H        95.2652   71.3227   69.0606 H        1 UNK          0.0000
   40 H        94.2547   70.5904   70.2931 H        1 UNK          0.0000
   41 C        96.3200   73.7154   76.1930 C.3      1 UNK          0.0000
   42 H        96.9543   72.9863   75.6808 H        1 UNK          0.0000
   43 C        96.8368   75.1438   75.9226 C.3      1 UNK          0.0000
   44 H        97.1330   75.2285   74.8684 H        1 UNK          0.0000
   45 C        94.9159   73.7217   75.5760 C.3      1 UNK          0.0000
   46 H        94.1991   73.3397   76.3108 H        1 UNK          0.0000
   47 C        95.5466   75.9437   76.0989 C.3      1 UNK          0.0000
   48 H        95.2448   75.9330   77.1511 H        1 UNK          0.0000
   49 C        95.6573   77.4001   75.5661 C.3      1 UNK          0.0000
   50 H        96.5475   77.8641   76.0058 H        1 UNK          0.0000
   51 H        95.7890   77.3867   74.4758 H        1 UNK          0.0000
   52 C        95.4779   73.0496   73.1899 C.ar     1 UNK          0.0000
   53 C        94.1132   71.6856   74.2190 C.ar     1 UNK          0.0000
   54 H        93.5725   71.2616   75.0487 H        1 UNK          0.0000
   55 C        94.9778   72.0641   72.3356 C.ar     1 UNK          0.0000
   56 C        88.8007   80.8955   72.2875 C.3      1 UNK          0.0000
   57 H        87.8864   80.3055   72.1315 H        1 UNK          0.0000
   58 C        88.6057   82.3094   71.6686 C.3      1 UNK          0.0000
   59 H        88.2262   82.1772   70.6479 H        1 UNK          0.0000
   60 H        89.5744   82.8128   71.5469 H        1 UNK          0.0000
   61 C        89.9849   80.1795   71.5604 C.3      1 UNK          0.0000
   62 H        90.9067   80.6934   71.8729 H        1 UNK          0.0000
   63 C        88.0703   84.0327   73.5129 C.ar     1 UNK          0.0000
   64 C        90.1669   78.6729   71.9039 C.3      1 UNK          0.0000
   65 H        89.3639   78.0903   71.4357 H        1 UNK          0.0000
   66 C        86.2723   83.0960   72.0509 C.ar     1 UNK          0.0000
   67 C        87.1070   84.7837   74.2888 C.ar     1 UNK          0.0000
   68 C        85.3584   83.9223   72.7938 C.ar     1 UNK          0.0000
   69 C        95.4039   72.1225   70.9529 C.ar     1 UNK          0.0000
   70 C        91.5232   78.1946   71.3005 C.3      1 UNK          0.0000
   71 H        92.3318   78.8816   71.5686 H        1 UNK          0.0000
   72 H        91.4360   78.1863   70.2069 H        1 UNK          0.0000
   73 C        89.4683   84.2029   73.8987 C.ar     1 UNK          0.0000
   74 H        90.2426   83.6712   73.3642 H        1 UNK          0.0000
   75 C        87.4707   85.6057   75.3809 C.ar     1 UNK          0.0000
   76 H        86.7379   86.1348   75.9768 H        1 UNK          0.0000
   77 C        89.8431   85.0802   74.9460 C.ar     1 UNK          0.0000
   78 C        88.8600   85.7988   75.7133 C.ar     1 UNK          0.0000
   79 C        96.7699   73.9756   71.4515 C.ar     1 UNK          0.0000
   80 H        97.4566   74.7424   71.0964 H        1 UNK          0.0000
   81 C        83.8680   83.7257   72.4539 C.2      1 UNK          0.0000
   82 C        84.4463   82.0162   70.7677 C.2      1 UNK          0.0000
   83 C        91.3551   85.2524   75.1963 C.3      1 UNK          0.0000
   84 H        91.6595   86.2936   75.0444 H        1 UNK          0.0000
   85 H        91.6258   84.9554   76.2135 H        1 UNK          0.0000
   86 H        91.9422   84.6369   74.5032 H        1 UNK          0.0000
   87 C        89.2293   86.7786   76.8216 C.3      1 UNK          0.0000
   88 H        89.8557   87.5914   76.4248 H        1 UNK          0.0000
   89 H        89.8048   86.2813   77.6154 H        1 UNK          0.0000
   90 H        88.3555   87.2470   77.2910 H        1 UNK          0.0000
@<TRIPOS>BOND
     1     1     8   1 
     2     1    11   1 
     3     1    17   1 
     4     1    19   1 
     5     2    11   1 
     6     2    14   1 
     7     2    21   1 
     8     2    24   1 
     9     3    45   1 
    10     3    47   1 
    11     4     5   1 
    12     4    41   1 
    13     6     7   1 
    14     6    43   1 
    15     8    49   1 
    16     9    10   1 
    17     9    56   1 
    18    12    13   1 
    19    12    61   1 
    20    14    70   1 
    21    15    16   1 
    22    15    64   1 
    23    17    18   1 
    24    19    20   1 
    25    21    22   1 
    26    23    81   2 
    27    24    25   1 
    28    26    82   2 
    29    27    45   1 
    30    27    52   1 
    31    27    53   1 
    32    28    58   1 
    33    28    63   ar
    34    28    66   ar
    35    29    53   2 
    36    29    55   1 
    37    30    52   ar
    38    30    79   ar
    39    31    32   1 
    40    31    67   ar
    41    31    68   ar
    42    33    34   1 
    43    33    66   1 
    44    33    82   am
    45    35    69   ar
    46    35    79   ar
    47    36    37   1 
    48    36    81   am
    49    36    82   am
    50    38    39   1 
    51    38    40   1 
    52    38    69   1 
    53    41    42   1 
    54    41    43   1 
    55    41    45   1 
    56    43    44   1 
    57    43    47   1 
    58    45    46   1 
    59    47    48   1 
    60    47    49   1 
    61    49    50   1 
    62    49    51   1 
    63    52    55   ar
    64    53    54   1 
    65    55    69   ar
    66    56    57   1 
    67    56    58   1 
    68    56    61   1 
    69    58    59   1 
    70    58    60   1 
    71    61    62   1 
    72    61    64   1 
    73    63    67   ar
    74    63    73   ar
    75    64    65   1 
    76    64    70   1 
    77    66    68   ar
    78    67    75   ar
    79    68    81   1 
    80    70    71   1 
    81    70    72   1 
    82    73    74   1 
    83    73    77   ar
    84    75    76   1 
    85    75    78   ar
    86    77    78   ar
    87    77    83   1 
    88    78    87   1 
    89    79    80   1 
    90    83    84   1 
    91    83    85   1 
    92    83    86   1 
    93    87    88   1 
    94    87    89   1 
    95    87    90   1 
 
