inp11.mol2
     Hgene          

 53 58  0  0  0  0               V2000
   89.1687   78.3594   72.7041 P   0  0  1  0  0
   91.6548   78.9025   71.2714 P   0  0  1  0  0
   88.3741   81.5636   72.0763 O   0  0  0  0  0
   91.1437   83.0604   70.6055 O   0  0  0  0  0
   91.4927   82.7352   73.3990 O   0  0  0  0  0
   88.7431   79.3129   73.9456 O   0  0  0  0  0
   95.2931   76.5567   74.4481 O   0  0  0  0  0
   90.7712   78.2878   72.4923 O   0  0  0  0  0
   96.1065   76.0278   71.5786 O   0  0  0  0  0
   93.2020   79.1354   71.6947 O   0  0  0  0  0
   93.5516   76.5056   70.4489 O   0  0  0  0  0
   88.4521   76.9191   72.8260 O   0  0  0  0  0
   88.5904   78.9607   71.3518 O   0  0  0  0  0
   91.5151   78.0761   69.9033 O   0  0  0  0  0
   95.6701   72.2954   79.7548 O   0  0  0  0  0
   91.1326   80.3210   70.7971 O   0  0  0  0  0
   96.4005   70.2938   75.9358 O   0  0  0  0  0
   87.5735   83.0131   70.5361 N   0  0  0  0  0
   93.8749   74.3914   75.7259 N   0  0  0  0  0
   85.7646   83.7642   69.3537 N   0  0  0  0  0
   87.0279   84.0834   72.7178 N   0  0  0  0  0
   93.7076   74.0564   78.6031 N   0  0  0  0  0
   95.2360   72.2998   75.6835 N   0  0  0  0  0
   84.9633   85.3670   72.6133 N   0  0  0  0  0
   96.0175   71.2953   77.8047 N   0  0  0  0  0
   83.7784   85.5934   70.5312 N   0  0  0  0  0
   89.9686   83.2309   71.4213 C   0  0  0  0  0
   90.1525   82.7559   72.8905 C   0  0  0  0  0
   88.7921   82.3168   70.9192 C   0  0  0  0  0
   89.5400   81.3629   72.8515 C   0  0  0  0  0
   89.2253   80.6714   74.1813 C   0  0  0  0  0
   86.8320   83.7672   71.3815 C   0  0  0  0  0
   86.8875   83.0356   69.3125 C   0  0  0  0  0
   85.7463   84.1990   70.6313 C   0  0  0  0  0
   95.1043   75.3573   73.6868 C   0  0  0  0  0
   93.9201   74.5304   74.2405 C   0  0  0  0  0
   94.8666   75.6385   72.1750 C   0  0  0  0  0
   93.2206   75.3474   76.5342 C   0  0  0  0  0
   93.7577   76.6818   71.8456 C   0  0  0  0  0
   94.5503   73.2826   76.3848 C   0  0  0  0  0
   93.0769   75.1755   77.9688 C   0  0  0  0  0
   94.5097   73.2408   77.8432 C   0  0  0  0  0
   84.7984   85.0446   71.2695 C   0  0  0  0  0
   94.1013   78.1576   72.2581 C   0  0  0  0  0
   92.6882   76.5701   75.9655 C   0  0  0  0  0
   92.4382   76.1308   78.7557 C   0  0  0  0  0
   92.0355   77.5012   76.7542 C   0  0  0  0  0
   91.9866   77.3351   78.1645 C   0  0  0  0  0
   86.0438   84.8291   73.3006 C   0  0  0  0  0
   95.4332   72.2559   78.5667 C   0  0  0  0  0
   95.8882   71.2505   76.4138 C   0  0  0  0  0
   91.3539   78.6438   76.0144 C   0  0  0  0  0
   91.5298   78.3860   79.0921 C   0  0  0  0  0
  1  6  1  0
  1  8  1  0
  1 12  1  0
  1 13  1  0
  2  8  1  0
  2 10  1  0
  2 14  1  0
  2 16  1  0
  3 29  1  0
  3 30  1  0
  4 27  1  0
  5 28  1  0
  6 31  1  0
  7 35  1  0
  9 37  1  0
 10 44  1  0
 11 39  1  0
 15 50  2  0
 17 51  2  0
 18 29  1  0
 18 32  1  0
 18 33  1  0
 19 36  1  0
 19 38  4  0
 19 40  4  0
 20 33  2  0
 20 34  1  0
 21 32  4  0
 21 49  4  0
 22 41  4  0
 22 42  4  0
 23 40  1  0
 23 51  1  0
 24 43  4  0
 24 49  4  0
 25 50  1  0
 25 51  1  0
 26 43  1  0
 27 28  1  0
 27 29  1  0
 28 30  1  0
 30 31  1  0
 32 34  4  0
 34 43  4  0
 35 36  1  0
 35 37  1  0
 37 39  1  0
 38 41  4  0
 38 45  4  0
 39 44  1  0
 40 42  4  0
 41 46  4  0
 42 50  1  0
 45 47  4  0
 46 48  4  0
 47 48  4  0
 47 52  1  0
 48 53  1  0
M  END
$$$$
