@<TRIPOS>COMMENT
   inp11.mol2              4    of   10
                  SCORE =  -366.7369
               dG-SCORE =    -7.4062
      LIGAND_EFFICIENCY =    -0.6920
  NUMBER_OF_HEAVY_ATOMS =         53
                    ASA =  -305.3883
                    ELE =     0.0000
                    HYD =   -49.9373
                    VDW =   -11.4113
                   RMSD =    30.2107
 MOLECULAR_WEIGHT = 789.59
@<TRIPOS>MOLECULE
inp11.mol2                                                                      
   90   95    0    0    0
SMALL       
GASTEIGER      
 
@<TRIPOS>ATOM
    1 P        89.1687   78.3594   72.7041 P.3      1 UNK          0.0000
    2 P        91.6548   78.9025   71.2714 P.3      1 UNK          0.0000
    3 O        88.3741   81.5636   72.0763 O.3      1 UNK          0.0000
    4 O        91.1437   83.0604   70.6055 O.3      1 UNK          0.0000
    5 H        91.0388   83.5903   69.7943 H        1 UNK          0.0000
    6 O        91.4927   82.7352   73.3990 O.3      1 UNK          0.0000
    7 H        91.7777   83.6613   73.4945 H        1 UNK          0.0000
    8 O        88.7431   79.3129   73.9456 O.3      1 UNK          0.0000
    9 O        95.2931   76.5567   74.4481 O.3      1 UNK          0.0000
   10 H        95.8308   77.1624   73.8944 H        1 UNK          0.0000
   11 O        90.7712   78.2878   72.4923 O.3      1 UNK          0.0000
   12 O        96.1065   76.0278   71.5786 O.3      1 UNK          0.0000
   13 H        96.3438   76.9067   71.9334 H        1 UNK          0.0000
   14 O        93.2020   79.1354   71.6947 O.3      1 UNK          0.0000
   15 O        93.5516   76.5056   70.4489 O.3      1 UNK          0.0000
   16 H        94.3572   76.8315   70.0065 H        1 UNK          0.0000
   17 O        88.4521   76.9191   72.8260 O.3      1 UNK          0.0000
   18 H        88.7899   76.4503   73.6042 H        1 UNK          0.0000
   19 O        88.5904   78.9607   71.3518 O.3      1 UNK          0.0000
   20 H        88.9281   78.4029   70.6343 H        1 UNK          0.0000
   21 O        91.5151   78.0761   69.9033 O.3      1 UNK          0.0000
   22 H        90.5787   78.0121   69.6654 H        1 UNK          0.0000
   23 O        95.6701   72.2954   79.7548 O.2      1 UNK          0.0000
   24 O        91.1326   80.3210   70.7971 O.3      1 UNK          0.0000
   25 H        90.1813   80.2407   70.5884 H        1 UNK          0.0000
   26 O        96.4005   70.2938   75.9358 O.2      1 UNK          0.0000
   27 N        87.5735   83.0131   70.5361 N.ar     1 UNK          0.0000
   28 N        93.8749   74.3914   75.7259 N.ar     1 UNK          0.0000
   29 N        85.7646   83.7642   69.3537 N.ar     1 UNK          0.0000
   30 N        87.0279   84.0834   72.7178 N.ar     1 UNK          0.0000
   31 N        93.7076   74.0564   78.6031 N.ar     1 UNK          0.0000
   32 H        93.6254   73.8915   79.6006 H        1 UNK          0.0000
   33 N        95.2360   72.2998   75.6835 N.am     1 UNK          0.0000
   34 H        95.2956   72.3067   74.6667 H        1 UNK          0.0000
   35 N        84.9633   85.3670   72.6133 N.ar     1 UNK          0.0000
   36 N        96.0175   71.2953   77.8047 N.am     1 UNK          0.0000
   37 H        96.6052   70.5877   78.2445 H        1 UNK          0.0000
   38 N        83.7784   85.5934   70.5312 N.pl3    1 UNK          0.0000
   39 H        83.1658   86.2755   70.9315 H        1 UNK          0.0000
   40 H        83.6791   85.3441   69.5613 H        1 UNK          0.0000
   41 C        89.9686   83.2309   71.4213 C.3      1 UNK          0.0000
   42 H        89.6828   84.2889   71.4111 H        1 UNK          0.0000
   43 C        90.1525   82.7559   72.8905 C.3      1 UNK          0.0000
   44 H        89.5222   83.3840   73.5299 H        1 UNK          0.0000
   45 C        88.7921   82.3168   70.9192 C.3      1 UNK          0.0000
   46 H        89.1051   81.6458   70.1080 H        1 UNK          0.0000
   47 C        89.5400   81.3629   72.8515 C.3      1 UNK          0.0000
   48 H        90.2165   80.7064   72.3027 H        1 UNK          0.0000
   49 C        89.2253   80.6714   74.1813 C.3      1 UNK          0.0000
   50 H        90.1743   80.6471   74.7329 H        1 UNK          0.0000
   51 H        88.5057   81.2686   74.7557 H        1 UNK          0.0000
   52 C        86.8320   83.7672   71.3815 C.ar     1 UNK          0.0000
   53 C        86.8875   83.0356   69.3125 C.ar     1 UNK          0.0000
   54 H        87.2520   82.5062   68.4424 H        1 UNK          0.0000
   55 C        85.7463   84.1990   70.6313 C.ar     1 UNK          0.0000
   56 C        95.1043   75.3573   73.6868 C.3      1 UNK          0.0000
   57 H        96.0072   74.7394   73.7613 H        1 UNK          0.0000
   58 C        93.9201   74.5304   74.2405 C.3      1 UNK          0.0000
   59 H        93.9482   73.5419   73.7800 H        1 UNK          0.0000
   60 H        92.9916   74.9990   73.8897 H        1 UNK          0.0000
   61 C        94.8666   75.6385   72.1750 C.3      1 UNK          0.0000
   62 H        94.5339   74.6988   71.7135 H        1 UNK          0.0000
   63 C        93.2206   75.3474   76.5342 C.ar     1 UNK          0.0000
   64 C        93.7577   76.6818   71.8456 C.3      1 UNK          0.0000
   65 H        92.8334   76.4198   72.3760 H        1 UNK          0.0000
   66 C        94.5503   73.2826   76.3848 C.ar     1 UNK          0.0000
   67 C        93.0769   75.1755   77.9688 C.ar     1 UNK          0.0000
   68 C        94.5097   73.2408   77.8432 C.ar     1 UNK          0.0000
   69 C        84.7984   85.0446   71.2695 C.ar     1 UNK          0.0000
   70 C        94.1013   78.1576   72.2581 C.3      1 UNK          0.0000
   71 H        95.1262   78.4051   71.9543 H        1 UNK          0.0000
   72 H        94.0736   78.2374   73.3545 H        1 UNK          0.0000
   73 C        92.6882   76.5701   75.9655 C.ar     1 UNK          0.0000
   74 H        92.7823   76.7822   74.9118 H        1 UNK          0.0000
   75 C        92.4382   76.1308   78.7557 C.ar     1 UNK          0.0000
   76 H        92.3206   76.0136   79.8278 H        1 UNK          0.0000
   77 C        92.0355   77.5012   76.7542 C.ar     1 UNK          0.0000
   78 C        91.9866   77.3351   78.1645 C.ar     1 UNK          0.0000
   79 C        86.0438   84.8291   73.3006 C.ar     1 UNK          0.0000
   80 H        86.1386   85.0139   74.3710 H        1 UNK          0.0000
   81 C        95.4332   72.2559   78.5667 C.2      1 UNK          0.0000
   82 C        95.8882   71.2505   76.4138 C.2      1 UNK          0.0000
   83 C        91.3539   78.6438   76.0144 C.3      1 UNK          0.0000
   84 H        90.2851   78.6204   76.2712 H        1 UNK          0.0000
   85 H        91.7623   79.6172   76.3034 H        1 UNK          0.0000
   86 H        91.3979   78.5506   74.9281 H        1 UNK          0.0000
   87 C        91.5298   78.3860   79.0921 C.3      1 UNK          0.0000
   88 H        91.8268   78.1309   80.1154 H        1 UNK          0.0000
   89 H        90.4317   78.4409   79.0579 H        1 UNK          0.0000
   90 H        91.9293   79.3830   78.8527 H        1 UNK          0.0000
@<TRIPOS>BOND
     1     1     8   1 
     2     1    11   1 
     3     1    17   1 
     4     1    19   1 
     5     2    11   1 
     6     2    14   1 
     7     2    21   1 
     8     2    24   1 
     9     3    45   1 
    10     3    47   1 
    11     4     5   1 
    12     4    41   1 
    13     6     7   1 
    14     6    43   1 
    15     8    49   1 
    16     9    10   1 
    17     9    56   1 
    18    12    13   1 
    19    12    61   1 
    20    14    70   1 
    21    15    16   1 
    22    15    64   1 
    23    17    18   1 
    24    19    20   1 
    25    21    22   1 
    26    23    81   2 
    27    24    25   1 
    28    26    82   2 
    29    27    45   1 
    30    27    52   1 
    31    27    53   1 
    32    28    58   1 
    33    28    63   ar
    34    28    66   ar
    35    29    53   2 
    36    29    55   1 
    37    30    52   ar
    38    30    79   ar
    39    31    32   1 
    40    31    67   ar
    41    31    68   ar
    42    33    34   1 
    43    33    66   1 
    44    33    82   am
    45    35    69   ar
    46    35    79   ar
    47    36    37   1 
    48    36    81   am
    49    36    82   am
    50    38    39   1 
    51    38    40   1 
    52    38    69   1 
    53    41    42   1 
    54    41    43   1 
    55    41    45   1 
    56    43    44   1 
    57    43    47   1 
    58    45    46   1 
    59    47    48   1 
    60    47    49   1 
    61    49    50   1 
    62    49    51   1 
    63    52    55   ar
    64    53    54   1 
    65    55    69   ar
    66    56    57   1 
    67    56    58   1 
    68    56    61   1 
    69    58    59   1 
    70    58    60   1 
    71    61    62   1 
    72    61    64   1 
    73    63    67   ar
    74    63    73   ar
    75    64    65   1 
    76    64    70   1 
    77    66    68   ar
    78    67    75   ar
    79    68    81   1 
    80    70    71   1 
    81    70    72   1 
    82    73    74   1 
    83    73    77   ar
    84    75    76   1 
    85    75    78   ar
    86    77    78   ar
    87    77    83   1 
    88    78    87   1 
    89    79    80   1 
    90    83    84   1 
    91    83    85   1 
    92    83    86   1 
    93    87    88   1 
    94    87    89   1 
    95    87    90   1 
 
