inp11.mol2
     Hgene          

 53 58  0  0  0  0               V2000
   88.8200   82.6117   75.6480 P   0  0  1  0  0
   89.6216   79.9629   74.2907 P   0  0  1  0  0
   87.6174   83.1548   72.4276 O   0  0  0  0  0
   88.8242   80.6140   70.3792 O   0  0  0  0  0
   90.8741   82.2928   71.1647 O   0  0  0  0  0
   89.3146   83.9659   74.9109 O   0  0  0  0  0
   92.1509   75.6253   76.6528 O   0  0  0  0  0
   89.7134   81.2937   75.2718 O   0  0  0  0  0
   91.7067   77.5173   78.7687 O   0  0  0  0  0
   91.1155   79.3571   74.0786 O   0  0  0  0  0
   90.4144   77.8186   76.3989 O   0  0  0  0  0
   88.7317   82.8569   77.2361 O   0  0  0  0  0
   87.3131   82.4669   75.2313 O   0  0  0  0  0
   88.6668   78.7071   74.5921 O   0  0  0  0  0
   95.9981   71.1950   75.2958 O   0  0  0  0  0
   88.8770   80.2629   72.9454 O   0  0  0  0  0
   96.3402   73.6869   78.9005 O   0  0  0  0  0
   86.0768   82.9242   70.7247 N   0  0  0  0  0
   94.4505   75.7829   75.1063 N   0  0  0  0  0
   83.9759   83.4452   69.9601 N   0  0  0  0  0
   87.1667   85.1090   70.1698 N   0  0  0  0  0
   95.0904   73.3392   73.6355 N   0  0  0  0  0
   95.5266   74.7658   77.0786 N   0  0  0  0  0
   85.7172   86.5621   68.8486 N   0  0  0  0  0
   96.2070   72.4499   77.0896 N   0  0  0  0  0
   83.4974   85.9451   68.3327 N   0  0  0  0  0
   88.4540   81.9986   70.4812 C   0  0  0  0  0
   89.5467   82.8383   71.1939 C   0  0  0  0  0
   87.1910   82.2350   71.3844 C   0  0  0  0  0
   89.0217   82.9837   72.6257 C   0  0  0  0  0
   89.7002   84.0676   73.5096 C   0  0  0  0  0
   86.1206   84.1977   70.2381 C   0  0  0  0  0
   84.7900   82.4682   70.3872 C   0  0  0  0  0
   84.8502   84.4461   69.7202 C   0  0  0  0  0
   93.0786   76.6066   77.0956 C   0  0  0  0  0
   94.1065   76.9468   75.9862 C   0  0  0  0  0
   92.4418   77.9164   77.6084 C   0  0  0  0  0
   94.0461   75.6196   73.7438 C   0  0  0  0  0
   91.5539   78.6416   76.5311 C   0  0  0  0  0
   95.1471   74.6831   75.7464 C   0  0  0  0  0
   94.4154   74.4245   72.9809 C   0  0  0  0  0
   95.3616   73.4725   74.9872 C   0  0  0  0  0
   84.6691   85.6676   68.9786 C   0  0  0  0  0
   92.1032   79.0096   75.1046 C   0  0  0  0  0
   93.1931   76.5917   73.0630 C   0  0  0  0  0
   94.0522   74.2432   71.6428 C   0  0  0  0  0
   92.7091   76.3475   71.7592 C   0  0  0  0  0
   93.1669   75.1862   71.0054 C   0  0  0  0  0
   86.9358   86.2438   69.4161 C   0  0  0  0  0
   95.8752   72.2735   75.7734 C   0  0  0  0  0
   96.0459   73.6408   77.7577 C   0  0  0  0  0
   91.5998   77.3207   71.2650 C   0  0  0  0  0
   92.6551   74.7955   69.6149 C   0  0  0  0  0
  1  6  1  0
  1  8  1  0
  1 12  1  0
  1 13  1  0
  2  8  1  0
  2 10  1  0
  2 14  1  0
  2 16  1  0
  3 29  1  0
  3 30  1  0
  4 27  1  0
  5 28  1  0
  6 31  1  0
  7 35  1  0
  9 37  1  0
 10 44  1  0
 11 39  1  0
 15 50  2  0
 17 51  2  0
 18 29  1  0
 18 32  1  0
 18 33  1  0
 19 36  1  0
 19 38  4  0
 19 40  4  0
 20 33  2  0
 20 34  1  0
 21 32  4  0
 21 49  4  0
 22 41  4  0
 22 42  4  0
 23 40  1  0
 23 51  1  0
 24 43  4  0
 24 49  4  0
 25 50  1  0
 25 51  1  0
 26 43  1  0
 27 28  1  0
 27 29  1  0
 28 30  1  0
 30 31  1  0
 32 34  4  0
 34 43  4  0
 35 36  1  0
 35 37  1  0
 37 39  1  0
 38 41  4  0
 38 45  4  0
 39 44  1  0
 40 42  4  0
 41 46  4  0
 42 50  1  0
 45 47  4  0
 46 48  4  0
 47 48  4  0
 47 52  1  0
 48 53  1  0
M  END
$$$$
