@<TRIPOS>COMMENT
   inp11.mol2              5    of   10
                  SCORE =  -315.3799
               dG-SCORE =    -6.1781
      LIGAND_EFFICIENCY =    -0.5951
  NUMBER_OF_HEAVY_ATOMS =         53
                    ASA =  -254.1487
                    ELE =     0.0000
                    HYD =   -52.4540
                    VDW =    -8.7773
                   RMSD =    30.6395
 MOLECULAR_WEIGHT = 789.59
@<TRIPOS>MOLECULE
inp11.mol2                                                                      
   90   95    0    0    0
SMALL       
GASTEIGER      
 
@<TRIPOS>ATOM
    1 P        88.8200   82.6117   75.6480 P.3      1 UNK          0.0000
    2 P        89.6216   79.9629   74.2907 P.3      1 UNK          0.0000
    3 O        87.6174   83.1548   72.4276 O.3      1 UNK          0.0000
    4 O        88.8242   80.6140   70.3792 O.3      1 UNK          0.0000
    5 H        88.1651   80.1510   69.8417 H        1 UNK          0.0000
    6 O        90.8741   82.2928   71.1647 O.3      1 UNK          0.0000
    7 H        91.1615   82.2863   70.2339 H        1 UNK          0.0000
    8 O        89.3146   83.9659   74.9109 O.3      1 UNK          0.0000
    9 O        92.1509   75.6253   76.6528 O.3      1 UNK          0.0000
   10 H        91.2684   75.9163   76.9548 H        1 UNK          0.0000
   11 O        89.7134   81.2937   75.2718 O.3      1 UNK          0.0000
   12 O        91.7067   77.5173   78.7687 O.3      1 UNK          0.0000
   13 H        90.9586   76.9497   78.4762 H        1 UNK          0.0000
   14 O        91.1155   79.3571   74.0786 O.3      1 UNK          0.0000
   15 O        90.4144   77.8186   76.3989 O.3      1 UNK          0.0000
   16 H        90.7291   76.9842   76.0131 H        1 UNK          0.0000
   17 O        88.7317   82.8569   77.2361 O.3      1 UNK          0.0000
   18 H        89.5932   83.1478   77.5619 H        1 UNK          0.0000
   19 O        87.3131   82.4669   75.2313 O.3      1 UNK          0.0000
   20 H        87.0056   81.6213   75.5946 H        1 UNK          0.0000
   21 O        88.6668   78.7071   74.5921 O.3      1 UNK          0.0000
   22 H        87.7800   79.0424   74.7758 H        1 UNK          0.0000
   23 O        95.9981   71.1950   75.2958 O.2      1 UNK          0.0000
   24 O        88.8770   80.2629   72.9454 O.3      1 UNK          0.0000
   25 H        88.8682   79.4556   72.4026 H        1 UNK          0.0000
   26 O        96.3402   73.6869   78.9005 O.2      1 UNK          0.0000
   27 N        86.0768   82.9242   70.7247 N.ar     1 UNK          0.0000
   28 N        94.4505   75.7829   75.1063 N.ar     1 UNK          0.0000
   29 N        83.9759   83.4452   69.9601 N.ar     1 UNK          0.0000
   30 N        87.1667   85.1090   70.1698 N.ar     1 UNK          0.0000
   31 N        95.0904   73.3392   73.6355 N.ar     1 UNK          0.0000
   32 H        95.3194   72.4871   73.1316 H        1 UNK          0.0000
   33 N        95.5266   74.7658   77.0786 N.am     1 UNK          0.0000
   34 H        95.4080   75.6168   77.5983 H        1 UNK          0.0000
   35 N        85.7172   86.5621   68.8486 N.ar     1 UNK          0.0000
   36 N        96.2070   72.4499   77.0896 N.am     1 UNK          0.0000
   37 H        96.6524   71.6771   77.5946 H        1 UNK          0.0000
   38 N        83.4974   85.9451   68.3327 N.pl3    1 UNK          0.0000
   39 H        83.4476   86.7750   67.7682 H        1 UNK          0.0000
   40 H        82.7156   85.3166   68.4029 H        1 UNK          0.0000
   41 C        88.4540   81.9986   70.4812 C.3      1 UNK          0.0000
   42 H        88.2863   82.3800   69.4690 H        1 UNK          0.0000
   43 C        89.5467   82.8383   71.1939 C.3      1 UNK          0.0000
   44 H        89.5499   83.8306   70.7312 H        1 UNK          0.0000
   45 C        87.1910   82.2350   71.3844 C.3      1 UNK          0.0000
   46 H        86.8336   81.2895   71.8119 H        1 UNK          0.0000
   47 C        89.0217   82.9837   72.6257 C.3      1 UNK          0.0000
   48 H        89.1745   82.0303   73.1358 H        1 UNK          0.0000
   49 C        89.7002   84.0676   73.5096 C.3      1 UNK          0.0000
   50 H        90.7830   83.8956   73.4499 H        1 UNK          0.0000
   51 H        89.5041   85.0673   73.1024 H        1 UNK          0.0000
   52 C        86.1206   84.1977   70.2381 C.ar     1 UNK          0.0000
   53 C        84.7900   82.4682   70.3872 C.ar     1 UNK          0.0000
   54 H        84.4953   81.4386   70.5319 H        1 UNK          0.0000
   55 C        84.8502   84.4461   69.7202 C.ar     1 UNK          0.0000
   56 C        93.0786   76.6066   77.0956 C.3      1 UNK          0.0000
   57 H        93.5898   76.1486   77.9426 H        1 UNK          0.0000
   58 C        94.1065   76.9468   75.9862 C.3      1 UNK          0.0000
   59 H        94.9981   77.3446   76.4836 H        1 UNK          0.0000
   60 H        93.7271   77.7797   75.3771 H        1 UNK          0.0000
   61 C        92.4418   77.9164   77.6084 C.3      1 UNK          0.0000
   62 H        93.2367   78.6034   77.9171 H        1 UNK          0.0000
   63 C        94.0461   75.6196   73.7438 C.ar     1 UNK          0.0000
   64 C        91.5539   78.6416   76.5311 C.3      1 UNK          0.0000
   65 H        91.2510   79.5993   76.9708 H        1 UNK          0.0000
   66 C        95.1471   74.6831   75.7464 C.ar     1 UNK          0.0000
   67 C        94.4154   74.4245   72.9809 C.ar     1 UNK          0.0000
   68 C        95.3616   73.4725   74.9872 C.ar     1 UNK          0.0000
   69 C        84.6691   85.6676   68.9786 C.ar     1 UNK          0.0000
   70 C        92.1032   79.0096   75.1046 C.3      1 UNK          0.0000
   71 H        92.6849   78.1613   74.7321 H        1 UNK          0.0000
   72 H        92.7988   79.8482   75.2161 H        1 UNK          0.0000
   73 C        93.1931   76.5917   73.0630 C.ar     1 UNK          0.0000
   74 H        92.8754   77.4974   73.5676 H        1 UNK          0.0000
   75 C        94.0522   74.2432   71.6428 C.ar     1 UNK          0.0000
   76 H        94.3487   73.3518   71.0956 H        1 UNK          0.0000
   77 C        92.7091   76.3475   71.7592 C.ar     1 UNK          0.0000
   78 C        93.1669   75.1862   71.0054 C.ar     1 UNK          0.0000
   79 C        86.9358   86.2438   69.4161 C.ar     1 UNK          0.0000
   80 H        87.7758   86.9152   69.2419 H        1 UNK          0.0000
   81 C        95.8752   72.2735   75.7734 C.2      1 UNK          0.0000
   82 C        96.0459   73.6408   77.7577 C.2      1 UNK          0.0000
   83 C        91.5998   77.3207   71.2650 C.3      1 UNK          0.0000
   84 H        91.8476   77.7593   70.2981 H        1 UNK          0.0000
   85 H        90.6258   76.8293   71.1620 H        1 UNK          0.0000
   86 H        91.4330   78.1381   71.9762 H        1 UNK          0.0000
   87 C        92.6551   74.7955   69.6149 C.3      1 UNK          0.0000
   88 H        93.0774   73.8387   69.2789 H        1 UNK          0.0000
   89 H        92.8484   75.5628   68.8614 H        1 UNK          0.0000
   90 H        91.5633   74.6438   69.6163 H        1 UNK          0.0000
@<TRIPOS>BOND
     1     1     8   1 
     2     1    11   1 
     3     1    17   1 
     4     1    19   1 
     5     2    11   1 
     6     2    14   1 
     7     2    21   1 
     8     2    24   1 
     9     3    45   1 
    10     3    47   1 
    11     4     5   1 
    12     4    41   1 
    13     6     7   1 
    14     6    43   1 
    15     8    49   1 
    16     9    10   1 
    17     9    56   1 
    18    12    13   1 
    19    12    61   1 
    20    14    70   1 
    21    15    16   1 
    22    15    64   1 
    23    17    18   1 
    24    19    20   1 
    25    21    22   1 
    26    23    81   2 
    27    24    25   1 
    28    26    82   2 
    29    27    45   1 
    30    27    52   1 
    31    27    53   1 
    32    28    58   1 
    33    28    63   ar
    34    28    66   ar
    35    29    53   2 
    36    29    55   1 
    37    30    52   ar
    38    30    79   ar
    39    31    32   1 
    40    31    67   ar
    41    31    68   ar
    42    33    34   1 
    43    33    66   1 
    44    33    82   am
    45    35    69   ar
    46    35    79   ar
    47    36    37   1 
    48    36    81   am
    49    36    82   am
    50    38    39   1 
    51    38    40   1 
    52    38    69   1 
    53    41    42   1 
    54    41    43   1 
    55    41    45   1 
    56    43    44   1 
    57    43    47   1 
    58    45    46   1 
    59    47    48   1 
    60    47    49   1 
    61    49    50   1 
    62    49    51   1 
    63    52    55   ar
    64    53    54   1 
    65    55    69   ar
    66    56    57   1 
    67    56    58   1 
    68    56    61   1 
    69    58    59   1 
    70    58    60   1 
    71    61    62   1 
    72    61    64   1 
    73    63    67   ar
    74    63    73   ar
    75    64    65   1 
    76    64    70   1 
    77    66    68   ar
    78    67    75   ar
    79    68    81   1 
    80    70    71   1 
    81    70    72   1 
    82    73    74   1 
    83    73    77   ar
    84    75    76   1 
    85    75    78   ar
    86    77    78   ar
    87    77    83   1 
    88    78    87   1 
    89    79    80   1 
    90    83    84   1 
    91    83    85   1 
    92    83    86   1 
    93    87    88   1 
    94    87    89   1 
    95    87    90   1 
 
