@<TRIPOS>COMMENT
   inp11.mol2              7    of   10
                  SCORE =  -294.2704
               dG-SCORE =    -7.4629
      LIGAND_EFFICIENCY =    -0.5552
  NUMBER_OF_HEAVY_ATOMS =         53
                    ASA =  -134.1410
                    ELE =     0.0000
                    HYD =  -160.1294
                    VDW =     0.0000
                   RMSD =    29.5506
 MOLECULAR_WEIGHT = 789.59
@<TRIPOS>MOLECULE
inp11.mol2                                                                      
   90   95    0    0    0
SMALL       
GASTEIGER      
 
@<TRIPOS>ATOM
    1 P        91.7632   78.4729   69.3117 P.3      1 UNK          0.0000
    2 P        92.2159   77.8021   72.1050 P.3      1 UNK          0.0000
    3 O        89.0950   79.8900   70.4073 O.3      1 UNK          0.0000
    4 O        89.0271   79.2881   73.6876 O.3      1 UNK          0.0000
    5 H        88.5659   79.6116   74.4825 H        1 UNK          0.0000
    6 O        88.2748   76.9944   72.3831 O.3      1 UNK          0.0000
    7 H        88.8033   76.4016   71.8165 H        1 UNK          0.0000
    8 O        90.4536   77.7739   68.6784 O.3      1 UNK          0.0000
    9 O        95.7194   75.7472   74.8217 O.3      1 UNK          0.0000
   10 H        96.1900   76.5075   74.4163 H        1 UNK          0.0000
   11 O        92.3921   77.5938   70.5127 O.3      1 UNK          0.0000
   12 O        96.8178   75.7847   71.9902 O.3      1 UNK          0.0000
   13 H        96.9818   76.5428   72.5845 H        1 UNK          0.0000
   14 O        92.0527   76.3800   72.8591 O.3      1 UNK          0.0000
   15 O        94.6510   77.3026   72.8966 O.3      1 UNK          0.0000
   16 H        95.2356   77.1257   73.6609 H        1 UNK          0.0000
   17 O        92.8627   78.5578   68.1416 O.3      1 UNK          0.0000
   18 H        93.0261   77.6558   67.8149 H        1 UNK          0.0000
   19 O        91.4228   79.9795   69.7625 O.3      1 UNK          0.0000
   20 H        92.2525   80.4250   70.0041 H        1 UNK          0.0000
   21 O        93.4440   78.6165   72.7504 O.3      1 UNK          0.0000
   22 H        93.5569   79.4513   72.2650 H        1 UNK          0.0000
   23 O        96.8752   71.1512   79.6286 O.2      1 UNK          0.0000
   24 O        90.8722   78.6418   72.3461 O.3      1 UNK          0.0000
   25 H        90.9609   79.5051   71.9018 H        1 UNK          0.0000
   26 O        98.5625   70.4950   75.5229 O.2      1 UNK          0.0000
   27 N        87.8049   81.6560   71.3226 N.ar     1 UNK          0.0000
   28 N        94.8244   73.2955   75.8339 N.ar     1 UNK          0.0000
   29 N        86.9461   83.7666   71.1019 N.ar     1 UNK          0.0000
   30 N        85.9478   80.4940   70.1725 N.ar     1 UNK          0.0000
   31 N        94.8467   72.8455   78.6582 N.ar     1 UNK          0.0000
   32 H        94.8507   72.6447   79.6567 H        1 UNK          0.0000
   33 N        96.7773   71.8329   75.6680 N.am     1 UNK          0.0000
   34 H        96.8133   71.9592   74.6657 H        1 UNK          0.0000
   35 N        84.2136   82.0035   69.4034 N.ar     1 UNK          0.0000
   36 N        97.7710   70.7793   77.6021 N.am     1 UNK          0.0000
   37 H        98.4863   70.1753   77.9865 H        1 UNK          0.0000
   38 N        84.3766   84.3183   69.7644 N.pl3    1 UNK          0.0000
   39 H        83.4042   84.3953   69.5049 H        1 UNK          0.0000
   40 H        84.7834   85.0563   70.3218 H        1 UNK          0.0000
   41 C        88.1480   79.4709   72.5694 C.3      1 UNK          0.0000
   42 H        87.1326   79.7240   72.9002 H        1 UNK          0.0000
   43 C        88.1337   78.2235   71.6664 C.3      1 UNK          0.0000
   44 H        87.1961   78.2138   71.0955 H        1 UNK          0.0000
   45 C        88.7381   80.5677   71.6361 C.3      1 UNK          0.0000
   46 H        89.6339   81.0106   72.0903 H        1 UNK          0.0000
   47 C        89.2907   78.4970   70.7012 C.3      1 UNK          0.0000
   48 H        90.2497   78.3399   71.2124 H        1 UNK          0.0000
   49 C        89.2186   77.6432   69.4109 C.3      1 UNK          0.0000
   50 H        89.0754   76.5917   69.6901 H        1 UNK          0.0000
   51 H        88.3592   77.9541   68.8038 H        1 UNK          0.0000
   52 C        86.6120   81.5615   70.6605 C.ar     1 UNK          0.0000
   53 C        87.9638   83.0285   71.5706 C.ar     1 UNK          0.0000
   54 H        88.8373   83.4180   72.0796 H        1 UNK          0.0000
   55 C        86.1314   82.8382   70.5482 C.ar     1 UNK          0.0000
   56 C        95.8516   74.6481   73.9162 C.3      1 UNK          0.0000
   57 H        96.8726   74.2492   73.9926 H        1 UNK          0.0000
   58 C        94.8583   73.5283   74.3465 C.3      1 UNK          0.0000
   59 H        95.1366   72.5969   73.8326 H        1 UNK          0.0000
   60 H        93.8553   73.7621   73.9689 H        1 UNK          0.0000
   61 C        95.6389   75.1099   72.4374 C.3      1 UNK          0.0000
   62 H        95.4776   74.2178   71.8157 H        1 UNK          0.0000
   63 C        93.9308   73.9972   76.6973 C.ar     1 UNK          0.0000
   64 C        94.3978   76.0448   72.2715 C.3      1 UNK          0.0000
   65 H        94.2300   76.2142   71.2000 H        1 UNK          0.0000
   66 C        95.7987   72.4617   76.4303 C.ar     1 UNK          0.0000
   67 C        93.9450   73.7520   78.0986 C.ar     1 UNK          0.0000
   68 C        95.7963   72.2491   77.8291 C.ar     1 UNK          0.0000
   69 C        84.9001   83.0561   69.9018 C.ar     1 UNK          0.0000
   70 C        93.1039   75.3987   72.8448 C.3      1 UNK          0.0000
   71 H        93.2858   75.0117   73.8549 H        1 UNK          0.0000
   72 H        92.8013   74.5556   72.2113 H        1 UNK          0.0000
   73 C        93.0033   74.9448   76.1959 C.ar     1 UNK          0.0000
   74 H        92.9576   75.1887   75.1399 H        1 UNK          0.0000
   75 C        93.0626   74.4323   78.9567 C.ar     1 UNK          0.0000
   76 H        93.0914   74.2484   80.0282 H        1 UNK          0.0000
   77 C        92.1208   75.6248   77.0564 C.ar     1 UNK          0.0000
   78 C        92.1497   75.3680   78.4443 C.ar     1 UNK          0.0000
   79 C        84.7723   80.7782   69.5644 C.ar     1 UNK          0.0000
   80 H        84.2159   79.9336   69.1615 H        1 UNK          0.0000
   81 C        96.8384   71.3625   78.4328 C.2      1 UNK          0.0000
   82 C        97.7371   71.0138   76.2409 C.2      1 UNK          0.0000
   83 C        91.1378   76.6385   76.4679 C.3      1 UNK          0.0000
   84 H        91.3055   77.6398   76.8844 H        1 UNK          0.0000
   85 H        91.2449   76.7053   75.3777 H        1 UNK          0.0000
   86 H        90.0944   76.3652   76.6687 H        1 UNK          0.0000
   87 C        91.2028   76.0920   79.4020 C.3      1 UNK          0.0000
   88 H        91.3661   75.7724   80.4395 H        1 UNK          0.0000
   89 H        90.1535   75.8918   79.1498 H        1 UNK          0.0000
   90 H        91.3428   77.1801   79.3731 H        1 UNK          0.0000
@<TRIPOS>BOND
     1     1     8   1 
     2     1    11   1 
     3     1    17   1 
     4     1    19   1 
     5     2    11   1 
     6     2    14   1 
     7     2    21   1 
     8     2    24   1 
     9     3    45   1 
    10     3    47   1 
    11     4     5   1 
    12     4    41   1 
    13     6     7   1 
    14     6    43   1 
    15     8    49   1 
    16     9    10   1 
    17     9    56   1 
    18    12    13   1 
    19    12    61   1 
    20    14    70   1 
    21    15    16   1 
    22    15    64   1 
    23    17    18   1 
    24    19    20   1 
    25    21    22   1 
    26    23    81   2 
    27    24    25   1 
    28    26    82   2 
    29    27    45   1 
    30    27    52   1 
    31    27    53   1 
    32    28    58   1 
    33    28    63   ar
    34    28    66   ar
    35    29    53   2 
    36    29    55   1 
    37    30    52   ar
    38    30    79   ar
    39    31    32   1 
    40    31    67   ar
    41    31    68   ar
    42    33    34   1 
    43    33    66   1 
    44    33    82   am
    45    35    69   ar
    46    35    79   ar
    47    36    37   1 
    48    36    81   am
    49    36    82   am
    50    38    39   1 
    51    38    40   1 
    52    38    69   1 
    53    41    42   1 
    54    41    43   1 
    55    41    45   1 
    56    43    44   1 
    57    43    47   1 
    58    45    46   1 
    59    47    48   1 
    60    47    49   1 
    61    49    50   1 
    62    49    51   1 
    63    52    55   ar
    64    53    54   1 
    65    55    69   ar
    66    56    57   1 
    67    56    58   1 
    68    56    61   1 
    69    58    59   1 
    70    58    60   1 
    71    61    62   1 
    72    61    64   1 
    73    63    67   ar
    74    63    73   ar
    75    64    65   1 
    76    64    70   1 
    77    66    68   ar
    78    67    75   ar
    79    68    81   1 
    80    70    71   1 
    81    70    72   1 
    82    73    74   1 
    83    73    77   ar
    84    75    76   1 
    85    75    78   ar
    86    77    78   ar
    87    77    83   1 
    88    78    87   1 
    89    79    80   1 
    90    83    84   1 
    91    83    85   1 
    92    83    86   1 
    93    87    88   1 
    94    87    89   1 
    95    87    90   1 
 
