inp11.mol2
     Hgene          

 53 58  0  0  0  0               V2000
   82.4850   54.3090   88.5890 P   0  0  1  0  0
   81.1870   56.8710   89.0460 P   0  0  1  0  0
   83.8240   56.6320   91.1100 O   0  0  0  0  0
   86.3890   56.9800   93.2140 O   0  0  0  0  0
   85.1980   54.5590   93.7130 O   0  0  0  0  0
   83.5990   53.9370   89.6960 O   0  0  0  0  0
   80.7070   53.7710   83.8880 O   0  0  0  0  0
   82.3200   55.9070   88.4160 O   0  0  0  0  0
   77.4870   54.8590   85.2920 O   0  0  0  0  0
   80.0360   57.1980   87.9570 O   0  0  0  0  0
   81.0150   55.8190   85.7790 O   0  0  0  0  0
   83.0010   53.7170   87.1860 O   0  0  0  0  0
   81.0940   53.5790   88.9370 O   0  0  0  0  0
   80.5170   56.2390   90.3650 O   0  0  0  0  0
   80.0110   53.4210   77.1870 O   0  0  0  0  0
   81.8870   58.2550   89.4500 O   0  0  0  0  0
   77.8200   56.6110   79.4580 O   0  0  0  0  0
   83.5070   58.7590   92.1080 N   0  0  0  0  0
   79.0440   52.7860   81.8630 N   0  0  0  0  0
   82.5390   60.8320   92.0250 N   0  0  0  0  0
   81.6180   57.6310   93.2400 N   0  0  0  0  0
   80.2070   51.7670   79.4570 N   0  0  0  0  0
   78.3980   54.7830   80.6080 N   0  0  0  0  0
   79.7510   59.1140   93.6790 N   0  0  0  0  0
   78.9110   55.0580   78.2630 N   0  0  0  0  0
   79.8340   61.3790   93.0640 N   0  0  0  0  0
   84.9550   56.9790   93.1950 C   0  0  0  0  0
   84.4040   55.5480   93.0530 C   0  0  0  0  0
   84.4660   57.6700   91.8890 C   0  0  0  0  0
   84.3460   55.3620   91.5340 C   0  0  0  0  0
   83.4110   54.2060   91.1000 C   0  0  0  0  0
   82.2700   58.6730   92.6850 C   0  0  0  0  0
   83.6270   60.1050   91.7280 C   0  0  0  0  0
   81.7220   59.9250   92.6100 C   0  0  0  0  0
   79.3950   54.3400   83.8690 C   0  0  0  0  0
   78.4420   53.3650   83.1160 C   0  0  0  0  0
   78.9040   54.6680   85.3170 C   0  0  0  0  0
   79.7860   51.5670   81.8640 C   0  0  0  0  0
   79.5990   55.9330   85.9160 C   0  0  0  0  0
   78.9990   53.5300   80.6610 C   0  0  0  0  0
   80.3510   51.0690   80.6570 C   0  0  0  0  0
   79.5790   53.0120   79.4790 C   0  0  0  0  0
   80.4280   60.1420   93.1200 C   0  0  0  0  0
   79.2090   56.1590   87.4050 C   0  0  0  0  0
   79.9970   50.8260   83.0540 C   0  0  0  0  0
   81.0810   49.8670   80.6470 C   0  0  0  0  0
   80.7280   49.6230   83.0420 C   0  0  0  0  0
   81.2700   49.1380   81.8320 C   0  0  0  0  0
   80.3820   57.9140   93.7140 C   0  0  0  0  0
   79.5260   53.8250   78.2250 C   0  0  0  0  0
   78.3570   55.5260   79.4390 C   0  0  0  0  0
   80.9290   48.8590   84.3520 C   0  0  0  0  0
   82.0690   47.8350   81.7900 C   0  0  0  0  0
  1  6  1  0
  1  8  1  0
  1 12  1  0
  1 13  1  0
  2  8  1  0
  2 10  1  0
  2 14  1  0
  2 16  1  0
  3 29  1  0
  3 30  1  0
  4 27  1  0
  5 28  1  0
  6 31  1  0
  7 35  1  0
  9 37  1  0
 10 44  1  0
 11 39  1  0
 15 50  2  0
 17 51  2  0
 18 29  1  0
 18 32  1  0
 18 33  1  0
 19 36  1  0
 19 38  4  0
 19 40  4  0
 20 33  2  0
 20 34  1  0
 21 32  4  0
 21 49  4  0
 22 41  4  0
 22 42  4  0
 23 40  1  0
 23 51  1  0
 24 43  4  0
 24 49  4  0
 25 50  1  0
 25 51  1  0
 26 43  1  0
 27 28  1  0
 27 29  1  0
 28 30  1  0
 30 31  1  0
 32 34  4  0
 34 43  4  0
 35 36  1  0
 35 37  1  0
 37 39  1  0
 38 41  4  0
 38 45  4  0
 39 44  1  0
 40 42  4  0
 41 46  4  0
 42 50  1  0
 45 47  4  0
 46 48  4  0
 47 48  4  0
 47 52  1  0
 48 53  1  0
M  END
$$$$
