inp8.mol2
     Hgene          

 53 58  0  0  0  0               V2000
   92.4920  116.0520  166.4650 P   0  0  1  0  0
   91.1940  118.6140  166.9220 P   0  0  1  0  0
   93.8310  118.3750  168.9860 O   0  0  0  0  0
   96.3960  118.7230  171.0900 O   0  0  0  0  0
   95.2050  116.3020  171.5890 O   0  0  0  0  0
   93.6060  115.6800  167.5720 O   0  0  0  0  0
   90.7140  115.5140  161.7640 O   0  0  0  0  0
   92.3270  117.6500  166.2920 O   0  0  0  0  0
   87.4940  116.6020  163.1680 O   0  0  0  0  0
   90.0430  118.9410  165.8330 O   0  0  0  0  0
   91.0220  117.5620  163.6550 O   0  0  0  0  0
   93.0080  115.4600  165.0620 O   0  0  0  0  0
   91.1010  115.3220  166.8130 O   0  0  0  0  0
   90.5240  117.9820  168.2410 O   0  0  0  0  0
   90.0180  115.1640  155.0630 O   0  0  0  0  0
   91.8940  119.9980  167.3260 O   0  0  0  0  0
   87.8270  118.3540  157.3340 O   0  0  0  0  0
   93.5140  120.5020  169.9840 N   0  0  0  0  0
   89.0510  114.5290  159.7390 N   0  0  0  0  0
   92.5460  122.5750  169.9010 N   0  0  0  0  0
   91.6250  119.3740  171.1160 N   0  0  0  0  0
   90.2140  113.5100  157.3330 N   0  0  0  0  0
   88.4050  116.5260  158.4840 N   0  0  0  0  0
   89.7580  120.8570  171.5550 N   0  0  0  0  0
   88.9180  116.8010  156.1390 N   0  0  0  0  0
   89.8410  123.1220  170.9400 N   0  0  0  0  0
   94.9620  118.7220  171.0710 C   0  0  0  0  0
   94.4110  117.2910  170.9290 C   0  0  0  0  0
   94.4730  119.4130  169.7650 C   0  0  0  0  0
   94.3530  117.1050  169.4100 C   0  0  0  0  0
   93.4180  115.9490  168.9760 C   0  0  0  0  0
   92.2770  120.4160  170.5610 C   0  0  0  0  0
   93.6340  121.8480  169.6040 C   0  0  0  0  0
   91.7290  121.6680  170.4860 C   0  0  0  0  0
   89.4020  116.0830  161.7450 C   0  0  0  0  0
   88.4490  115.1080  160.9920 C   0  0  0  0  0
   88.9110  116.4110  163.1930 C   0  0  0  0  0
   89.7930  113.3100  159.7400 C   0  0  0  0  0
   89.6060  117.6760  163.7920 C   0  0  0  0  0
   89.0060  115.2730  158.5370 C   0  0  0  0  0
   90.3580  112.8120  158.5330 C   0  0  0  0  0
   89.5860  114.7550  157.3550 C   0  0  0  0  0
   90.4350  121.8850  170.9960 C   0  0  0  0  0
   89.2160  117.9020  165.2810 C   0  0  0  0  0
   90.0040  112.5690  160.9300 C   0  0  0  0  0
   91.0880  111.6100  158.5230 C   0  0  0  0  0
   90.7350  111.3660  160.9180 C   0  0  0  0  0
   91.2770  110.8810  159.7080 C   0  0  0  0  0
   90.3890  119.6570  171.5900 C   0  0  0  0  0
   89.5330  115.5680  156.1010 C   0  0  0  0  0
   88.3640  117.2690  157.3150 C   0  0  0  0  0
   90.9360  110.6020  162.2280 C   0  0  0  0  0
   92.0760  109.5780  159.6660 C   0  0  0  0  0
  1  6  1  0
  1  8  1  0
  1 12  1  0
  1 13  1  0
  2  8  1  0
  2 10  1  0
  2 14  1  0
  2 16  1  0
  3 29  1  0
  3 30  1  0
  4 27  1  0
  5 28  1  0
  6 31  1  0
  7 35  1  0
  9 37  1  0
 10 44  1  0
 11 39  1  0
 15 50  2  0
 17 51  2  0
 18 29  1  0
 18 32  1  0
 18 33  1  0
 19 36  1  0
 19 38  4  0
 19 40  4  0
 20 33  2  0
 20 34  1  0
 21 32  4  0
 21 49  4  0
 22 41  4  0
 22 42  4  0
 23 40  1  0
 23 51  1  0
 24 43  4  0
 24 49  4  0
 25 50  1  0
 25 51  1  0
 26 43  1  0
 27 28  1  0
 27 29  1  0
 28 30  1  0
 30 31  1  0
 32 34  4  0
 34 43  4  0
 35 36  1  0
 35 37  1  0
 37 39  1  0
 38 41  4  0
 38 45  4  0
 39 44  1  0
 40 42  4  0
 41 46  4  0
 42 50  1  0
 45 47  4  0
 46 48  4  0
 47 48  4  0
 47 52  1  0
 48 53  1  0
M  END
$$$$
