@<TRIPOS>MOLECULE
inp11.mol2
 90 95 0 0 0
SMALL
GASTEIGER

@<TRIPOS>ATOM
     1 P1          82.4850    54.3090    88.5890 P.3       1  UNK         0.0000
     2 P2          81.1870    56.8710    89.0460 P.3       1  UNK         0.0000
     3 O1          83.8240    56.6320    91.1100 O.3       1  UNK         0.0000
     4 O2          86.3890    56.9800    93.2140 O.3       1  UNK         0.0000
     5 H7          86.6750    57.5780    93.9280 H         1  UNK         0.0000
     6 O3          85.1980    54.5590    93.7130 O.3       1  UNK         0.0000
     7 H8          86.1000    54.9250    93.7780 H         1  UNK         0.0000
     8 O4          83.5990    53.9370    89.6960 O.3       1  UNK         0.0000
     9 O5          80.7070    53.7710    83.8880 O.3       1  UNK         0.0000
    10 H22         81.2320    54.2890    84.5360 H         1  UNK         0.0000
    11 O6          82.3200    55.9070    88.4160 O.3       1  UNK         0.0000
    12 O7          77.4870    54.8590    85.2920 O.3       1  UNK         0.0000
    13 H23         77.1920    55.0880    86.1950 H         1  UNK         0.0000
    14 O8          80.0360    57.1980    87.9570 O.3       1  UNK         0.0000
    15 O9          81.0150    55.8190    85.7790 O.3       1  UNK         0.0000
    16 H24         81.4120    56.3340    86.5100 H         1  UNK         0.0000
    17 O10         83.0010    53.7170    87.1860 O.3       1  UNK         0.0000
    18 H29         83.8750    54.1020    86.9990 H         1  UNK         0.0000
    19 O11         81.0940    53.5790    88.9370 O.3       1  UNK         0.0000
    20 H36         81.2690    52.6340    89.0840 H         1  UNK         0.0000
    21 O12         80.5170    56.2390    90.3650 O.3       1  UNK         0.0000
    22 H35         79.9160    56.8950    90.7570 H         1  UNK         0.0000
    23 O13         80.0110    53.4210    77.1870 O.2       1  UNK         0.0000
    24 O14         81.8870    58.2550    89.4500 O.3       1  UNK         0.0000
    25 H37         82.5790    58.0720    90.1120 H         1  UNK         0.0000
    26 O15         77.8200    56.6110    79.4580 O.2       1  UNK         0.0000
    27 N1          83.5070    58.7590    92.1080 N.ar      1  UNK         0.0000
    28 N2          79.0440    52.7860    81.8630 N.ar      1  UNK         0.0000
    29 N3          82.5390    60.8320    92.0250 N.ar      1  UNK         0.0000
    30 N4          81.6180    57.6310    93.2400 N.ar      1  UNK         0.0000
    31 N5          80.2070    51.7670    79.4570 N.ar      1  UNK         0.0000
    32 H17         80.5840    51.4070    78.5820 H         1  UNK         0.0000
    33 N6          78.3980    54.7830    80.6080 N.am      1  UNK         0.0000
    34 H20         77.9740    55.1890    81.4310 H         1  UNK         0.0000
    35 N7          79.7510    59.1140    93.6790 N.ar      1  UNK         0.0000
    36 N8          78.9110    55.0580    78.2630 N.am      1  UNK         0.0000
    37 H25         78.8640    55.6280    77.4280 H         1  UNK         0.0000
    38 N9          79.8340    61.3790    93.0640 N.pl3     1  UNK         0.0000
    39 H30         79.0180    61.5320    93.6380 H         1  UNK         0.0000
    40 H31         80.4230    62.1710    92.8480 H         1  UNK         0.0000
    41 C1          84.9550    56.9790    93.1950 C.3       1  UNK         0.0000
    42 H1          84.5460    57.4670    94.0890 H         1  UNK         0.0000
    43 C2          84.4040    55.5480    93.0530 C.3       1  UNK         0.0000
    44 H2          83.3800    55.5250    93.4480 H         1  UNK         0.0000
    45 C3          84.4660    57.6700    91.8890 C.3       1  UNK         0.0000
    46 H3          85.3200    58.0780    91.3330 H         1  UNK         0.0000
    47 C4          84.3460    55.3620    91.5340 C.3       1  UNK         0.0000
    48 H4          85.3580    55.2070    91.1370 H         1  UNK         0.0000
    49 C5          83.4110    54.2060    91.1000 C.3       1  UNK         0.0000
    50 H5          83.6680    53.3080    91.6760 H         1  UNK         0.0000
    51 H6          82.3680    54.4650    91.3210 H         1  UNK         0.0000
    52 C6          82.2700    58.6730    92.6850 C.ar      1  UNK         0.0000
    53 C7          83.6270    60.1050    91.7280 C.ar      1  UNK         0.0000
    54 H9          84.5160    60.4810    91.2360 H         1  UNK         0.0000
    55 C8          81.7220    59.9250    92.6100 C.ar      1  UNK         0.0000
    56 C9          79.3950    54.3400    83.8690 C.3       1  UNK         0.0000
    57 H10         79.4290    55.2860    83.3110 H         1  UNK         0.0000
    58 C10         78.4420    53.3650    83.1160 C.3       1  UNK         0.0000
    59 H11         77.5160    53.9030    82.8670 H         1  UNK         0.0000
    60 H12         78.1220    52.5660    83.7960 H         1  UNK         0.0000
    61 C11         78.9040    54.6680    85.3170 C.3       1  UNK         0.0000
    62 H13         79.1400    53.8120    85.9650 H         1  UNK         0.0000
    63 C12         79.7860    51.5670    81.8640 C.ar      1  UNK         0.0000
    64 C13         79.5990    55.9330    85.9160 C.3       1  UNK         0.0000
    65 H14         79.2630    56.8140    85.3540 H         1  UNK         0.0000
    66 C14         78.9990    53.5300    80.6610 C.ar      1  UNK         0.0000
    67 C15         80.3510    51.0690    80.6570 C.ar      1  UNK         0.0000
    68 C16         79.5790    53.0120    79.4790 C.ar      1  UNK         0.0000
    69 C17         80.4280    60.1420    93.1200 C.ar      1  UNK         0.0000
    70 C18         79.2090    56.1590    87.4050 C.3       1  UNK         0.0000
    71 H15         79.3240    55.2290    87.9750 H         1  UNK         0.0000
    72 H16         78.1570    56.4640    87.4680 H         1  UNK         0.0000
    73 C19         79.9970    50.8260    83.0540 C.ar      1  UNK         0.0000
    74 H18         79.6160    51.1690    84.0100 H         1  UNK         0.0000
    75 C20         81.0810    49.8670    80.6470 C.ar      1  UNK         0.0000
    76 H19         81.5090    49.4950    79.7190 H         1  UNK         0.0000
    77 C21         80.7280    49.6230    83.0420 C.ar      1  UNK         0.0000
    78 C22         81.2700    49.1380    81.8320 C.ar      1  UNK         0.0000
    79 C23         80.3820    57.9140    93.7140 C.ar      1  UNK         0.0000
    80 H21         79.8360    57.0910    94.1720 H         1  UNK         0.0000
    81 C24         79.5260    53.8250    78.2250 C.2       1  UNK         0.0000
    82 C25         78.3570    55.5260    79.4390 C.2       1  UNK         0.0000
    83 C26         80.9290    48.8590    84.3520 C.3       1  UNK         0.0000
    84 H26         80.5120    47.8460    84.2870 H         1  UNK         0.0000
    85 H27         81.9950    48.7690    84.5970 H         1  UNK         0.0000
    86 H28         80.4420    49.3580    85.1990 H         1  UNK         0.0000
    87 C27         82.0690    47.8350    81.7900 C.3       1  UNK         0.0000
    88 H32         81.4590    46.9840    82.1200 H         1  UNK         0.0000
    89 H33         82.9510    47.8890    82.4410 H         1  UNK         0.0000
    90 H34         82.4260    47.6050    80.7780 H         1  UNK         0.0000
@<TRIPOS>BOND
     1     1     8   1
     2     1    11   1
     3     1    17   1
     4     1    19   1
     5     2    11   1
     6     2    14   1
     7     2    21   1
     8     2    24   1
     9     3    45   1
    10     3    47   1
    11     4     5   1
    12     4    41   1
    13     6     7   1
    14     6    43   1
    15     8    49   1
    16     9    10   1
    17     9    56   1
    18    12    13   1
    19    12    61   1
    20    14    70   1
    21    15    16   1
    22    15    64   1
    23    17    18   1
    24    19    20   1
    25    21    22   1
    26    23    81   2
    27    24    25   1
    28    26    82   2
    29    27    45   1
    30    27    52   1
    31    27    53   1
    32    28    58   1
    33    28    63  ar
    34    28    66  ar
    35    29    53   2
    36    29    55   1
    37    30    52  ar
    38    30    79  ar
    39    31    32   1
    40    31    67  ar
    41    31    68  ar
    42    33    34   1
    43    33    66   1
    44    33    82  am
    45    35    69  ar
    46    35    79  ar
    47    36    37   1
    48    36    81  am
    49    36    82  am
    50    38    39   1
    51    38    40   1
    52    38    69   1
    53    41    42   1
    54    41    43   1
    55    41    45   1
    56    43    44   1
    57    43    47   1
    58    45    46   1
    59    47    48   1
    60    47    49   1
    61    49    50   1
    62    49    51   1
    63    52    55  ar
    64    53    54   1
    65    55    69  ar
    66    56    57   1
    67    56    58   1
    68    56    61   1
    69    58    59   1
    70    58    60   1
    71    61    62   1
    72    61    64   1
    73    63    67  ar
    74    63    73  ar
    75    64    65   1
    76    64    70   1
    77    66    68  ar
    78    67    75  ar
    79    68    81   1
    80    70    71   1
    81    70    72   1
    82    73    74   1
    83    73    77  ar
    84    75    76   1
    85    75    78  ar
    86    77    78  ar
    87    77    83   1
    88    78    87   1
    89    79    80   1
    90    83    84   1
    91    83    85   1
    92    83    86   1
    93    87    88   1
    94    87    89   1
    95    87    90   1

