#  inp11.mol2              1    of   10
#                 SCORE =  -395.0736
#              dG-SCORE =    -8.3502
#     LIGAND_EFFICIENCY =    -0.7454
# NUMBER_OF_HEAVY_ATOMS =         53
#                   ASA =  -328.5508
#                   ELE =     0.0000
#                   HYD =   -58.3136
#                   VDW =    -8.2092
#                  RMSD =    29.7505
@<TRIPOS>MOLECULE
inp11.mol2                                                                      
   90   95    0    0    0
SMALL       
GASTEIGER      
 
@<TRIPOS>ATOM
    1 P        94.7169   79.2566   77.8253 P.3      1 UNK          0.0000
    2 P        93.7232   78.1213   75.2294 P.3      1 UNK          0.0000
    3 O        94.3912   75.8522   78.6481 O.3      1 UNK          0.0000
    4 O        92.7971   74.1309   76.1768 O.3      1 UNK          0.0000
    5 H        93.1922   73.2833   75.9054 H        1 UNK          0.0000
    6 O        91.0984   76.0048   77.7124 O.3      1 UNK          0.0000
    7 H        90.5084   75.2421   77.6549 H        1 UNK          0.0000
    8 O        93.7786   78.9344   79.1053 O.3      1 UNK          0.0000
    9 O        90.7415   83.5320   72.2754 O.3      1 UNK          0.0000
   10 H        91.4942   83.7961   71.7016 H        1 UNK          0.0000
   11 O        93.8660   79.2139   76.4378 O.3      1 UNK          0.0000
   12 O        91.5821   81.0576   71.3593 O.3      1 UNK          0.0000
   13 H        90.8451   80.4915   71.6597 H        1 UNK          0.0000
   14 O        92.2795   78.2566   74.5085 O.3      1 UNK          0.0000
   15 O        93.8492   79.9666   72.6223 O.3      1 UNK          0.0000
   16 H        93.4390   79.5496   71.8421 H        1 UNK          0.0000
   17 O        95.3505   80.7191   78.0565 O.3      1 UNK          0.0000
   18 H        94.6364   81.3800   78.0395 H        1 UNK          0.0000
   19 O        95.9524   78.2291   77.8089 O.3      1 UNK          0.0000
   20 H        96.4551   78.3713   76.9901 H        1 UNK          0.0000
   21 O        94.9143   78.1581   74.1602 O.3      1 UNK          0.0000
   22 H        95.7594   78.1210   74.6259 H        1 UNK          0.0000
   23 O        87.7001   86.6968   77.1528 O.2      1 UNK          0.0000
   24 O        93.8253   76.5998   75.6595 O.3      1 UNK          0.0000
   25 H        93.4581   76.0355   74.9546 H        1 UNK          0.0000
   26 O        91.5512   84.5811   78.0687 O.2      1 UNK          0.0000
   27 N        95.0629   73.5470   78.7145 N.ar     1 UNK          0.0000
   28 N        89.0377   82.8515   74.4601 N.ar     1 UNK          0.0000
   29 N        96.4458   71.8702   79.3705 N.ar     1 UNK          0.0000
   30 N        93.7403   73.6227   80.7975 N.ar     1 UNK          0.0000
   31 N        86.9629   84.7589   75.0637 N.ar     1 UNK          0.0000
   32 H        86.2071   85.3696   75.3476 H        1 UNK          0.0000
   33 N        90.2845   83.6255   76.4799 N.am     1 UNK          0.0000
   34 H        91.0089   82.9310   76.3204 H        1 UNK          0.0000
   35 N        94.7682   72.3500   82.6681 N.ar     1 UNK          0.0000
   36 N        89.5133   85.5432   77.8022 N.am     1 UNK          0.0000
   37 H        89.6417   86.1465   78.5856 H        1 UNK          0.0000
   38 N        96.6965   71.3756   82.5596 N.pl3    1 UNK          0.0000
   39 H        96.4968   71.1619   83.5200 H        1 UNK          0.0000
   40 H        97.5736   71.1042   82.1320 H        1 UNK          0.0000
   41 C        92.9566   74.2777   77.5908 C.3      1 UNK          0.0000
   42 H        92.6677   73.3495   78.0904 H        1 UNK          0.0000
   43 C        92.2669   75.4902   78.2795 C.3      1 UNK          0.0000
   44 H        92.1053   75.2134   79.3224 H        1 UNK          0.0000
   45 C        94.4348   74.5885   77.8832 C.3      1 UNK          0.0000
   46 H        95.0288   74.7417   76.9701 H        1 UNK          0.0000
   47 C        93.2336   76.6291   78.2954 C.3      1 UNK          0.0000
   48 H        93.3562   77.0042   77.2848 H        1 UNK          0.0000
   49 C        92.7972   77.8729   79.1431 C.3      1 UNK          0.0000
   50 H        91.8657   78.2437   78.7098 H        1 UNK          0.0000
   51 H        92.5661   77.6068   80.1701 H        1 UNK          0.0000
   52 C        94.7735   73.1988   79.9907 C.ar     1 UNK          0.0000
   53 C        96.2270   72.8611   78.4876 C.ar     1 UNK          0.0000
   54 H        96.8727   73.1718   77.6765 H        1 UNK          0.0000
   55 C        95.7625   72.3318   80.4358 C.ar     1 UNK          0.0000
   56 C        91.2708   82.6180   73.2481 C.3      1 UNK          0.0000
   57 H        91.8869   83.1928   73.9533 H        1 UNK          0.0000
   58 C        90.1410   81.9076   74.0629 C.3      1 UNK          0.0000
   59 H        90.5888   81.4555   74.9618 H        1 UNK          0.0000
   60 H        89.7468   81.0638   73.4920 H        1 UNK          0.0000
   61 C        92.2218   81.6209   72.5177 C.3      1 UNK          0.0000
   62 H        93.0932   82.2022   72.1835 H        1 UNK          0.0000
   63 C        87.9276   83.0464   73.5288 C.ar     1 UNK          0.0000
   64 C        92.7857   80.4837   73.4136 C.3      1 UNK          0.0000
   65 H        93.1948   80.9188   74.3365 H        1 UNK          0.0000
   66 C        89.1391   83.6582   75.6160 C.ar     1 UNK          0.0000
   67 C        86.9118   84.0480   73.8795 C.ar     1 UNK          0.0000
   68 C        88.1259   84.6834   75.9019 C.ar     1 UNK          0.0000
   69 C        95.7875   71.9969   81.8431 C.ar     1 UNK          0.0000
   70 C        91.7227   79.4082   73.8431 C.3      1 UNK          0.0000
   71 H        91.1528   79.0784   72.9660 H        1 UNK          0.0000
   72 H        91.0000   79.8852   74.5190 H        1 UNK          0.0000
   73 C        87.7960   82.3198   72.3153 C.ar     1 UNK          0.0000
   74 H        88.5151   81.5562   72.0125 H        1 UNK          0.0000
   75 C        85.8274   84.2723   72.9674 C.ar     1 UNK          0.0000
   76 H        85.0669   84.9741   73.2572 H        1 UNK          0.0000
   77 C        86.6903   82.5453   71.4243 C.ar     1 UNK          0.0000
   78 C        85.7151   83.5536   71.7545 C.ar     1 UNK          0.0000
   79 C        93.8346   73.2119   82.1243 C.ar     1 UNK          0.0000
   80 H        93.0938   73.6243   82.8097 H        1 UNK          0.0000
   81 C        88.3845   85.6952   76.9816 C.2      1 UNK          0.0000
   82 C        90.4814   84.5651   77.4865 C.2      1 UNK          0.0000
   83 C        86.5900   81.6864   70.1853 C.3      1 UNK          0.0000
   84 H        87.4812   81.0540   70.0928 H        1 UNK          0.0000
   85 H        85.7021   81.0422   70.2179 H        1 UNK          0.0000
   86 H        86.5236   82.2836   69.2662 H        1 UNK          0.0000
   87 C        84.5084   83.8134   70.8316 C.3      1 UNK          0.0000
   88 H        83.7871   84.4826   71.3070 H        1 UNK          0.0000
   89 H        83.9851   82.8819   70.5838 H        1 UNK          0.0000
   90 H        84.8028   84.2680   69.8834 H        1 UNK          0.0000
@<TRIPOS>BOND
     1     1     8   1 
     2     1    11   1 
     3     1    17   1 
     4     1    19   1 
     5     2    11   1 
     6     2    14   1 
     7     2    21   1 
     8     2    24   1 
     9     3    45   1 
    10     3    47   1 
    11     4     5   1 
    12     4    41   1 
    13     6     7   1 
    14     6    43   1 
    15     8    49   1 
    16     9    10   1 
    17     9    56   1 
    18    12    13   1 
    19    12    61   1 
    20    14    70   1 
    21    15    16   1 
    22    15    64   1 
    23    17    18   1 
    24    19    20   1 
    25    21    22   1 
    26    23    81   2 
    27    24    25   1 
    28    26    82   2 
    29    27    45   1 
    30    27    52   1 
    31    27    53   1 
    32    28    58   1 
    33    28    63   ar
    34    28    66   ar
    35    29    53   2 
    36    29    55   1 
    37    30    52   ar
    38    30    79   ar
    39    31    32   1 
    40    31    67   ar
    41    31    68   ar
    42    33    34   1 
    43    33    66   1 
    44    33    82   am
    45    35    69   ar
    46    35    79   ar
    47    36    37   1 
    48    36    81   am
    49    36    82   am
    50    38    39   1 
    51    38    40   1 
    52    38    69   1 
    53    41    42   1 
    54    41    43   1 
    55    41    45   1 
    56    43    44   1 
    57    43    47   1 
    58    45    46   1 
    59    47    48   1 
    60    47    49   1 
    61    49    50   1 
    62    49    51   1 
    63    52    55   ar
    64    53    54   1 
    65    55    69   ar
    66    56    57   1 
    67    56    58   1 
    68    56    61   1 
    69    58    59   1 
    70    58    60   1 
    71    61    62   1 
    72    61    64   1 
    73    63    67   ar
    74    63    73   ar
    75    64    65   1 
    76    64    70   1 
    77    66    68   ar
    78    67    75   ar
    79    68    81   1 
    80    70    71   1 
    81    70    72   1 
    82    73    74   1 
    83    73    77   ar
    84    75    76   1 
    85    75    78   ar
    86    77    78   ar
    87    77    83   1 
    88    78    87   1 
    89    79    80   1 
    90    83    84   1 
    91    83    85   1 
    92    83    86   1 
    93    87    88   1 
    94    87    89   1 
    95    87    90   1 
#MOLECULE END
 
#  inp11.mol2              2    of   10
#                 SCORE =  -343.7973
#              dG-SCORE =    -8.6593
#     LIGAND_EFFICIENCY =    -0.6487
# NUMBER_OF_HEAVY_ATOMS =         53
#                   ASA =  -189.7113
#                   ELE =     0.0000
#                   HYD =  -154.0860
#                   VDW =     0.0000
#                  RMSD =    31.1212
@<TRIPOS>MOLECULE
inp11.mol2                                                                      
   90   95    0    0    0
SMALL       
GASTEIGER      
 
@<TRIPOS>ATOM
    1 P        93.5115   76.5930   71.3012 P.3      1 UNK          0.0000
    2 P        92.0807   78.7218   72.6720 P.3      1 UNK          0.0000
    3 O        94.3378   75.6639   74.2647 O.3      1 UNK          0.0000
    4 O        93.0239   77.9317   76.3281 O.3      1 UNK          0.0000
    5 H        92.8312   78.0338   77.2776 H        1 UNK          0.0000
    6 O        95.2451   79.0328   75.1522 O.3      1 UNK          0.0000
    7 H        95.9952   79.2789   75.7255 H        1 UNK          0.0000
    8 O        95.1133   76.6609   71.4866 O.3      1 UNK          0.0000
    9 O        89.0363   83.5266   69.5401 O.3      1 UNK          0.0000
   10 H        89.5462   83.6026   68.7046 H        1 UNK          0.0000
   11 O        92.8319   78.0551   71.4065 O.3      1 UNK          0.0000
   12 O        89.5859   80.9312   68.9097 O.3      1 UNK          0.0000
   13 H        88.8339   80.6446   69.4640 H        1 UNK          0.0000
   14 O        92.4547   80.2902   72.8051 O.3      1 UNK          0.0000
   15 O        90.0869   79.8808   71.4525 O.3      1 UNK          0.0000
   16 H        89.3480   80.5174   71.5298 H        1 UNK          0.0000
   17 O        93.2334   76.0312   69.8207 O.3      1 UNK          0.0000
   18 H        93.6710   76.6245   69.1854 H        1 UNK          0.0000
   19 O        92.8783   75.5417   72.3418 O.3      1 UNK          0.0000
   20 H        91.9416   75.4101   72.1170 H        1 UNK          0.0000
   21 O        90.4830   78.5540   72.5870 O.3      1 UNK          0.0000
   22 H        90.2720   77.6123   72.4688 H        1 UNK          0.0000
   23 O        87.5779   87.4081   74.8666 O.2      1 UNK          0.0000
   24 O        92.5956   77.9809   73.9966 O.3      1 UNK          0.0000
   25 H        92.1552   78.3819   74.7685 H        1 UNK          0.0000
   26 O        91.5196   85.2681   74.7325 O.2      1 UNK          0.0000
   27 N        94.0695   74.5258   76.3271 N.ar     1 UNK          0.0000
   28 N        88.0555   83.4515   72.1609 N.ar     1 UNK          0.0000
   29 N        93.8913   72.5419   77.4557 N.ar     1 UNK          0.0000
   30 N        96.5414   74.6275   76.3610 N.ar     1 UNK          0.0000
   31 N        86.3813   85.5721   73.0992 N.ar     1 UNK          0.0000
   32 H        85.7922   86.3145   73.4721 H        1 UNK          0.0000
   33 N        89.8673   84.3981   73.5033 N.am     1 UNK          0.0000
   34 H        90.4999   83.6696   73.2017 H        1 UNK          0.0000
   35 N        97.5551   72.7325   77.4831 N.ar     1 UNK          0.0000
   36 N        89.5787   86.3863   74.8455 N.am     1 UNK          0.0000
   37 H        89.9754   87.0654   75.4826 H        1 UNK          0.0000
   38 N        96.2340   71.0265   78.4102 N.pl3    1 UNK          0.0000
   39 H        97.0560   70.6961   78.8938 H        1 UNK          0.0000
   40 H        95.3277   70.7682   78.7746 H        1 UNK          0.0000
   41 C        94.1562   77.0604   76.2047 C.3      1 UNK          0.0000
   42 H        94.6396   76.8978   77.1766 H        1 UNK          0.0000
   43 C        95.1652   77.6055   75.1769 C.3      1 UNK          0.0000
   44 H        96.1541   77.1829   75.3971 H        1 UNK          0.0000
   45 C        93.6955   75.7203   75.5611 C.3      1 UNK          0.0000
   46 H        92.6049   75.7145   75.4365 H        1 UNK          0.0000
   47 C        94.6591   77.0054   73.8619 C.3      1 UNK          0.0000
   48 H        93.7573   77.5370   73.5305 H        1 UNK          0.0000
   49 C        95.7303   77.0063   72.7432 C.3      1 UNK          0.0000
   50 H        96.1620   78.0124   72.6676 H        1 UNK          0.0000
   51 H        96.5375   76.3079   72.9972 H        1 UNK          0.0000
   52 C        95.3320   74.0911   76.6228 C.ar     1 UNK          0.0000
   53 C        93.2227   73.5407   76.8592 C.ar     1 UNK          0.0000
   54 H        92.1451   73.6060   76.7682 H        1 UNK          0.0000
   55 C        95.1846   72.9077   77.2946 C.ar     1 UNK          0.0000
   56 C        89.8521   82.7933   70.4577 C.3      1 UNK          0.0000
   57 H        90.6476   83.4545   70.8284 H        1 UNK          0.0000
   58 C        88.9730   82.3633   71.6694 C.3      1 UNK          0.0000
   59 H        89.6353   82.0411   72.4858 H        1 UNK          0.0000
   60 H        88.4012   81.4646   71.4076 H        1 UNK          0.0000
   61 C        90.5424   81.5812   69.7508 C.3      1 UNK          0.0000
   62 H        91.3649   81.9645   69.1305 H        1 UNK          0.0000
   63 C        86.7330   83.6239   71.6531 C.ar     1 UNK          0.0000
   64 C        91.1409   80.5541   70.7652 C.3      1 UNK          0.0000
   65 H        91.7241   79.8113   70.2056 H        1 UNK          0.0000
   66 C        88.5521   84.4308   73.0525 C.ar     1 UNK          0.0000
   67 C        85.9078   84.6754   72.1401 C.ar     1 UNK          0.0000
   68 C        87.7111   85.4736   73.5075 C.ar     1 UNK          0.0000
   69 C        96.3305   72.2171   77.7325 C.ar     1 UNK          0.0000
   70 C        92.1082   81.2337   71.7766 C.3      1 UNK          0.0000
   71 H        91.6408   82.1257   72.2112 H        1 UNK          0.0000
   72 H        93.0206   81.5516   71.2569 H        1 UNK          0.0000
   73 C        86.1978   82.7599   70.6647 C.ar     1 UNK          0.0000
   74 H        86.7846   81.9521   70.2407 H        1 UNK          0.0000
   75 C        84.6002   84.8483   71.6521 C.ar     1 UNK          0.0000
   76 H        83.9827   85.6642   72.0204 H        1 UNK          0.0000
   77 C        84.8887   82.9346   70.1774 C.ar     1 UNK          0.0000
   78 C        84.0848   83.9840   70.6730 C.ar     1 UNK          0.0000
   79 C        97.5972   73.9098   76.8110 C.ar     1 UNK          0.0000
   80 H        98.5855   74.3209   76.6125 H        1 UNK          0.0000
   81 C        88.2628   86.4954   74.4499 C.2      1 UNK          0.0000
   82 C        90.3653   85.3517   74.3767 C.2      1 UNK          0.0000
   83 C        84.3557   81.9765   69.1106 C.3      1 UNK          0.0000
   84 H        85.1060   81.2199   68.8481 H        1 UNK          0.0000
   85 H        83.4584   81.4523   69.4636 H        1 UNK          0.0000
   86 H        84.0755   82.5009   68.1886 H        1 UNK          0.0000
   87 C        82.6596   84.1970   70.1617 C.3      1 UNK          0.0000
   88 H        82.1856   85.0569   70.6528 H        1 UNK          0.0000
   89 H        82.0341   83.3151   70.3505 H        1 UNK          0.0000
   90 H        82.6355   84.3881   69.0812 H        1 UNK          0.0000
@<TRIPOS>BOND
     1     1     8   1 
     2     1    11   1 
     3     1    17   1 
     4     1    19   1 
     5     2    11   1 
     6     2    14   1 
     7     2    21   1 
     8     2    24   1 
     9     3    45   1 
    10     3    47   1 
    11     4     5   1 
    12     4    41   1 
    13     6     7   1 
    14     6    43   1 
    15     8    49   1 
    16     9    10   1 
    17     9    56   1 
    18    12    13   1 
    19    12    61   1 
    20    14    70   1 
    21    15    16   1 
    22    15    64   1 
    23    17    18   1 
    24    19    20   1 
    25    21    22   1 
    26    23    81   2 
    27    24    25   1 
    28    26    82   2 
    29    27    45   1 
    30    27    52   1 
    31    27    53   1 
    32    28    58   1 
    33    28    63   ar
    34    28    66   ar
    35    29    53   2 
    36    29    55   1 
    37    30    52   ar
    38    30    79   ar
    39    31    32   1 
    40    31    67   ar
    41    31    68   ar
    42    33    34   1 
    43    33    66   1 
    44    33    82   am
    45    35    69   ar
    46    35    79   ar
    47    36    37   1 
    48    36    81   am
    49    36    82   am
    50    38    39   1 
    51    38    40   1 
    52    38    69   1 
    53    41    42   1 
    54    41    43   1 
    55    41    45   1 
    56    43    44   1 
    57    43    47   1 
    58    45    46   1 
    59    47    48   1 
    60    47    49   1 
    61    49    50   1 
    62    49    51   1 
    63    52    55   ar
    64    53    54   1 
    65    55    69   ar
    66    56    57   1 
    67    56    58   1 
    68    56    61   1 
    69    58    59   1 
    70    58    60   1 
    71    61    62   1 
    72    61    64   1 
    73    63    67   ar
    74    63    73   ar
    75    64    65   1 
    76    64    70   1 
    77    66    68   ar
    78    67    75   ar
    79    68    81   1 
    80    70    71   1 
    81    70    72   1 
    82    73    74   1 
    83    73    77   ar
    84    75    76   1 
    85    75    78   ar
    86    77    78   ar
    87    77    83   1 
    88    78    87   1 
    89    79    80   1 
    90    83    84   1 
    91    83    85   1 
    92    83    86   1 
    93    87    88   1 
    94    87    89   1 
    95    87    90   1 
#MOLECULE END
 
#  inp11.mol2              3    of   10
#                 SCORE =  -341.8710
#              dG-SCORE =    -6.7455
#     LIGAND_EFFICIENCY =    -0.6450
# NUMBER_OF_HEAVY_ATOMS =         53
#                   ASA =  -264.2783
#                   ELE =     0.0000
#                   HYD =   -59.8964
#                   VDW =   -17.6963
#                  RMSD =    30.5855
@<TRIPOS>MOLECULE
inp11.mol2                                                                      
   90   95    0    0    0
SMALL       
GASTEIGER      
 
@<TRIPOS>ATOM
    1 P        93.3686   78.5658   74.8578 P.3      1 UNK          0.0000
    2 P        93.0168   76.5365   72.7951 P.3      1 UNK          0.0000
    3 O        94.6631   75.1252   75.3032 O.3      1 UNK          0.0000
    4 O        96.1014   73.4272   77.5853 O.3      1 UNK          0.0000
    5 H        96.3494   72.5066   77.7508 H        1 UNK          0.0000
    6 O        97.9428   75.5278   76.7396 O.3      1 UNK          0.0000
    7 H        97.7145   75.2234   77.6312 H        1 UNK          0.0000
    8 O        94.5126   78.1989   75.9318 O.3      1 UNK          0.0000
    9 O        89.0416   81.0210   73.6971 O.3      1 UNK          0.0000
   10 H        89.2988   80.1321   74.0208 H        1 UNK          0.0000
   11 O        92.8098   77.2131   74.2416 O.3      1 UNK          0.0000
   12 O        89.8482   80.3083   70.1382 O.3      1 UNK          0.0000
   13 H        90.6519   79.9412   69.7223 H        1 UNK          0.0000
   14 O        91.8547   76.8795   71.7284 O.3      1 UNK          0.0000
   15 O        90.1016   78.5065   73.3147 O.3      1 UNK          0.0000
   16 H        90.3940   77.5905   73.4918 H        1 UNK          0.0000
   17 O        92.1571   79.2598   75.6441 O.3      1 UNK          0.0000
   18 H        91.8474   78.6157   76.3024 H        1 UNK          0.0000
   19 O        93.8886   79.5405   73.6910 O.3      1 UNK          0.0000
   20 H        94.3180   80.3078   74.0935 H        1 UNK          0.0000
   21 O        94.4612   76.6639   72.1320 O.3      1 UNK          0.0000
   22 H        94.4737   76.0400   71.3853 H        1 UNK          0.0000
   23 O        83.0322   84.3027   73.0912 O.2      1 UNK          0.0000
   24 O        92.8556   75.0047   73.1051 O.3      1 UNK          0.0000
   25 H        93.3562   74.7817   73.9099 H        1 UNK          0.0000
   26 O        84.1332   81.1783   69.9653 O.2      1 UNK          0.0000
   27 N        94.8309   72.8778   74.3765 N.ar     1 UNK          0.0000
   28 N        87.6730   83.1800   72.4293 N.ar     1 UNK          0.0000
   29 N        94.1557   71.1848   72.9714 N.ar     1 UNK          0.0000
   30 N        96.4151   73.9916   72.7915 N.ar     1 UNK          0.0000
   31 N        85.7354   84.7080   73.8908 N.ar     1 UNK          0.0000
   32 H        85.0429   85.2157   74.4128 H        1 UNK          0.0000
   33 N        85.8248   82.1689   71.0846 N.am     1 UNK          0.0000
   34 H        86.4485   81.5340   70.6090 H        1 UNK          0.0000
   35 N        96.3126   73.0665   70.5169 N.ar     1 UNK          0.0000
   36 N        83.4869   82.7746   71.4811 N.am     1 UNK          0.0000
   37 H        82.4875   82.5703   71.3422 H        1 UNK          0.0000
   38 N        94.9350   71.2749   70.0116 N.pl3    1 UNK          0.0000
   39 H        95.2652   71.3227   69.0606 H        1 UNK          0.0000
   40 H        94.2547   70.5904   70.2931 H        1 UNK          0.0000
   41 C        96.3200   73.7154   76.1930 C.3      1 UNK          0.0000
   42 H        96.9543   72.9863   75.6808 H        1 UNK          0.0000
   43 C        96.8368   75.1438   75.9226 C.3      1 UNK          0.0000
   44 H        97.1330   75.2285   74.8684 H        1 UNK          0.0000
   45 C        94.9159   73.7217   75.5760 C.3      1 UNK          0.0000
   46 H        94.1991   73.3397   76.3108 H        1 UNK          0.0000
   47 C        95.5466   75.9437   76.0989 C.3      1 UNK          0.0000
   48 H        95.2448   75.9330   77.1511 H        1 UNK          0.0000
   49 C        95.6573   77.4001   75.5661 C.3      1 UNK          0.0000
   50 H        96.5475   77.8641   76.0058 H        1 UNK          0.0000
   51 H        95.7890   77.3867   74.4758 H        1 UNK          0.0000
   52 C        95.4779   73.0496   73.1899 C.ar     1 UNK          0.0000
   53 C        94.1132   71.6856   74.2190 C.ar     1 UNK          0.0000
   54 H        93.5725   71.2616   75.0487 H        1 UNK          0.0000
   55 C        94.9778   72.0641   72.3356 C.ar     1 UNK          0.0000
   56 C        88.8007   80.8955   72.2875 C.3      1 UNK          0.0000
   57 H        87.8864   80.3055   72.1315 H        1 UNK          0.0000
   58 C        88.6057   82.3094   71.6686 C.3      1 UNK          0.0000
   59 H        88.2262   82.1772   70.6479 H        1 UNK          0.0000
   60 H        89.5744   82.8128   71.5469 H        1 UNK          0.0000
   61 C        89.9849   80.1795   71.5604 C.3      1 UNK          0.0000
   62 H        90.9067   80.6934   71.8729 H        1 UNK          0.0000
   63 C        88.0703   84.0327   73.5129 C.ar     1 UNK          0.0000
   64 C        90.1669   78.6729   71.9039 C.3      1 UNK          0.0000
   65 H        89.3639   78.0903   71.4357 H        1 UNK          0.0000
   66 C        86.2723   83.0960   72.0509 C.ar     1 UNK          0.0000
   67 C        87.1070   84.7837   74.2888 C.ar     1 UNK          0.0000
   68 C        85.3584   83.9223   72.7938 C.ar     1 UNK          0.0000
   69 C        95.4039   72.1225   70.9529 C.ar     1 UNK          0.0000
   70 C        91.5232   78.1946   71.3005 C.3      1 UNK          0.0000
   71 H        92.3318   78.8816   71.5686 H        1 UNK          0.0000
   72 H        91.4360   78.1863   70.2069 H        1 UNK          0.0000
   73 C        89.4683   84.2029   73.8987 C.ar     1 UNK          0.0000
   74 H        90.2426   83.6712   73.3642 H        1 UNK          0.0000
   75 C        87.4707   85.6057   75.3809 C.ar     1 UNK          0.0000
   76 H        86.7379   86.1348   75.9768 H        1 UNK          0.0000
   77 C        89.8431   85.0802   74.9460 C.ar     1 UNK          0.0000
   78 C        88.8600   85.7988   75.7133 C.ar     1 UNK          0.0000
   79 C        96.7699   73.9756   71.4515 C.ar     1 UNK          0.0000
   80 H        97.4566   74.7424   71.0964 H        1 UNK          0.0000
   81 C        83.8680   83.7257   72.4539 C.2      1 UNK          0.0000
   82 C        84.4463   82.0162   70.7677 C.2      1 UNK          0.0000
   83 C        91.3551   85.2524   75.1963 C.3      1 UNK          0.0000
   84 H        91.6595   86.2936   75.0444 H        1 UNK          0.0000
   85 H        91.6258   84.9554   76.2135 H        1 UNK          0.0000
   86 H        91.9422   84.6369   74.5032 H        1 UNK          0.0000
   87 C        89.2293   86.7786   76.8216 C.3      1 UNK          0.0000
   88 H        89.8557   87.5914   76.4248 H        1 UNK          0.0000
   89 H        89.8048   86.2813   77.6154 H        1 UNK          0.0000
   90 H        88.3555   87.2470   77.2910 H        1 UNK          0.0000
@<TRIPOS>BOND
     1     1     8   1 
     2     1    11   1 
     3     1    17   1 
     4     1    19   1 
     5     2    11   1 
     6     2    14   1 
     7     2    21   1 
     8     2    24   1 
     9     3    45   1 
    10     3    47   1 
    11     4     5   1 
    12     4    41   1 
    13     6     7   1 
    14     6    43   1 
    15     8    49   1 
    16     9    10   1 
    17     9    56   1 
    18    12    13   1 
    19    12    61   1 
    20    14    70   1 
    21    15    16   1 
    22    15    64   1 
    23    17    18   1 
    24    19    20   1 
    25    21    22   1 
    26    23    81   2 
    27    24    25   1 
    28    26    82   2 
    29    27    45   1 
    30    27    52   1 
    31    27    53   1 
    32    28    58   1 
    33    28    63   ar
    34    28    66   ar
    35    29    53   2 
    36    29    55   1 
    37    30    52   ar
    38    30    79   ar
    39    31    32   1 
    40    31    67   ar
    41    31    68   ar
    42    33    34   1 
    43    33    66   1 
    44    33    82   am
    45    35    69   ar
    46    35    79   ar
    47    36    37   1 
    48    36    81   am
    49    36    82   am
    50    38    39   1 
    51    38    40   1 
    52    38    69   1 
    53    41    42   1 
    54    41    43   1 
    55    41    45   1 
    56    43    44   1 
    57    43    47   1 
    58    45    46   1 
    59    47    48   1 
    60    47    49   1 
    61    49    50   1 
    62    49    51   1 
    63    52    55   ar
    64    53    54   1 
    65    55    69   ar
    66    56    57   1 
    67    56    58   1 
    68    56    61   1 
    69    58    59   1 
    70    58    60   1 
    71    61    62   1 
    72    61    64   1 
    73    63    67   ar
    74    63    73   ar
    75    64    65   1 
    76    64    70   1 
    77    66    68   ar
    78    67    75   ar
    79    68    81   1 
    80    70    71   1 
    81    70    72   1 
    82    73    74   1 
    83    73    77   ar
    84    75    76   1 
    85    75    78   ar
    86    77    78   ar
    87    77    83   1 
    88    78    87   1 
    89    79    80   1 
    90    83    84   1 
    91    83    85   1 
    92    83    86   1 
    93    87    88   1 
    94    87    89   1 
    95    87    90   1 
#MOLECULE END
 
#  inp11.mol2              4    of   10
#                 SCORE =  -366.7369
#              dG-SCORE =    -7.4062
#     LIGAND_EFFICIENCY =    -0.6920
# NUMBER_OF_HEAVY_ATOMS =         53
#                   ASA =  -305.3883
#                   ELE =     0.0000
#                   HYD =   -49.9373
#                   VDW =   -11.4113
#                  RMSD =    30.2107
@<TRIPOS>MOLECULE
inp11.mol2                                                                      
   90   95    0    0    0
SMALL       
GASTEIGER      
 
@<TRIPOS>ATOM
    1 P        89.1687   78.3594   72.7041 P.3      1 UNK          0.0000
    2 P        91.6548   78.9025   71.2714 P.3      1 UNK          0.0000
    3 O        88.3741   81.5636   72.0763 O.3      1 UNK          0.0000
    4 O        91.1437   83.0604   70.6055 O.3      1 UNK          0.0000
    5 H        91.0388   83.5903   69.7943 H        1 UNK          0.0000
    6 O        91.4927   82.7352   73.3990 O.3      1 UNK          0.0000
    7 H        91.7777   83.6613   73.4945 H        1 UNK          0.0000
    8 O        88.7431   79.3129   73.9456 O.3      1 UNK          0.0000
    9 O        95.2931   76.5567   74.4481 O.3      1 UNK          0.0000
   10 H        95.8308   77.1624   73.8944 H        1 UNK          0.0000
   11 O        90.7712   78.2878   72.4923 O.3      1 UNK          0.0000
   12 O        96.1065   76.0278   71.5786 O.3      1 UNK          0.0000
   13 H        96.3438   76.9067   71.9334 H        1 UNK          0.0000
   14 O        93.2020   79.1354   71.6947 O.3      1 UNK          0.0000
   15 O        93.5516   76.5056   70.4489 O.3      1 UNK          0.0000
   16 H        94.3572   76.8315   70.0065 H        1 UNK          0.0000
   17 O        88.4521   76.9191   72.8260 O.3      1 UNK          0.0000
   18 H        88.7899   76.4503   73.6042 H        1 UNK          0.0000
   19 O        88.5904   78.9607   71.3518 O.3      1 UNK          0.0000
   20 H        88.9281   78.4029   70.6343 H        1 UNK          0.0000
   21 O        91.5151   78.0761   69.9033 O.3      1 UNK          0.0000
   22 H        90.5787   78.0121   69.6654 H        1 UNK          0.0000
   23 O        95.6701   72.2954   79.7548 O.2      1 UNK          0.0000
   24 O        91.1326   80.3210   70.7971 O.3      1 UNK          0.0000
   25 H        90.1813   80.2407   70.5884 H        1 UNK          0.0000
   26 O        96.4005   70.2938   75.9358 O.2      1 UNK          0.0000
   27 N        87.5735   83.0131   70.5361 N.ar     1 UNK          0.0000
   28 N        93.8749   74.3914   75.7259 N.ar     1 UNK          0.0000
   29 N        85.7646   83.7642   69.3537 N.ar     1 UNK          0.0000
   30 N        87.0279   84.0834   72.7178 N.ar     1 UNK          0.0000
   31 N        93.7076   74.0564   78.6031 N.ar     1 UNK          0.0000
   32 H        93.6254   73.8915   79.6006 H        1 UNK          0.0000
   33 N        95.2360   72.2998   75.6835 N.am     1 UNK          0.0000
   34 H        95.2956   72.3067   74.6667 H        1 UNK          0.0000
   35 N        84.9633   85.3670   72.6133 N.ar     1 UNK          0.0000
   36 N        96.0175   71.2953   77.8047 N.am     1 UNK          0.0000
   37 H        96.6052   70.5877   78.2445 H        1 UNK          0.0000
   38 N        83.7784   85.5934   70.5312 N.pl3    1 UNK          0.0000
   39 H        83.1658   86.2755   70.9315 H        1 UNK          0.0000
   40 H        83.6791   85.3441   69.5613 H        1 UNK          0.0000
   41 C        89.9686   83.2309   71.4213 C.3      1 UNK          0.0000
   42 H        89.6828   84.2889   71.4111 H        1 UNK          0.0000
   43 C        90.1525   82.7559   72.8905 C.3      1 UNK          0.0000
   44 H        89.5222   83.3840   73.5299 H        1 UNK          0.0000
   45 C        88.7921   82.3168   70.9192 C.3      1 UNK          0.0000
   46 H        89.1051   81.6458   70.1080 H        1 UNK          0.0000
   47 C        89.5400   81.3629   72.8515 C.3      1 UNK          0.0000
   48 H        90.2165   80.7064   72.3027 H        1 UNK          0.0000
   49 C        89.2253   80.6714   74.1813 C.3      1 UNK          0.0000
   50 H        90.1743   80.6471   74.7329 H        1 UNK          0.0000
   51 H        88.5057   81.2686   74.7557 H        1 UNK          0.0000
   52 C        86.8320   83.7672   71.3815 C.ar     1 UNK          0.0000
   53 C        86.8875   83.0356   69.3125 C.ar     1 UNK          0.0000
   54 H        87.2520   82.5062   68.4424 H        1 UNK          0.0000
   55 C        85.7463   84.1990   70.6313 C.ar     1 UNK          0.0000
   56 C        95.1043   75.3573   73.6868 C.3      1 UNK          0.0000
   57 H        96.0072   74.7394   73.7613 H        1 UNK          0.0000
   58 C        93.9201   74.5304   74.2405 C.3      1 UNK          0.0000
   59 H        93.9482   73.5419   73.7800 H        1 UNK          0.0000
   60 H        92.9916   74.9990   73.8897 H        1 UNK          0.0000
   61 C        94.8666   75.6385   72.1750 C.3      1 UNK          0.0000
   62 H        94.5339   74.6988   71.7135 H        1 UNK          0.0000
   63 C        93.2206   75.3474   76.5342 C.ar     1 UNK          0.0000
   64 C        93.7577   76.6818   71.8456 C.3      1 UNK          0.0000
   65 H        92.8334   76.4198   72.3760 H        1 UNK          0.0000
   66 C        94.5503   73.2826   76.3848 C.ar     1 UNK          0.0000
   67 C        93.0769   75.1755   77.9688 C.ar     1 UNK          0.0000
   68 C        94.5097   73.2408   77.8432 C.ar     1 UNK          0.0000
   69 C        84.7984   85.0446   71.2695 C.ar     1 UNK          0.0000
   70 C        94.1013   78.1576   72.2581 C.3      1 UNK          0.0000
   71 H        95.1262   78.4051   71.9543 H        1 UNK          0.0000
   72 H        94.0736   78.2374   73.3545 H        1 UNK          0.0000
   73 C        92.6882   76.5701   75.9655 C.ar     1 UNK          0.0000
   74 H        92.7823   76.7822   74.9118 H        1 UNK          0.0000
   75 C        92.4382   76.1308   78.7557 C.ar     1 UNK          0.0000
   76 H        92.3206   76.0136   79.8278 H        1 UNK          0.0000
   77 C        92.0355   77.5012   76.7542 C.ar     1 UNK          0.0000
   78 C        91.9866   77.3351   78.1645 C.ar     1 UNK          0.0000
   79 C        86.0438   84.8291   73.3006 C.ar     1 UNK          0.0000
   80 H        86.1386   85.0139   74.3710 H        1 UNK          0.0000
   81 C        95.4332   72.2559   78.5667 C.2      1 UNK          0.0000
   82 C        95.8882   71.2505   76.4138 C.2      1 UNK          0.0000
   83 C        91.3539   78.6438   76.0144 C.3      1 UNK          0.0000
   84 H        90.2851   78.6204   76.2712 H        1 UNK          0.0000
   85 H        91.7623   79.6172   76.3034 H        1 UNK          0.0000
   86 H        91.3979   78.5506   74.9281 H        1 UNK          0.0000
   87 C        91.5298   78.3860   79.0921 C.3      1 UNK          0.0000
   88 H        91.8268   78.1309   80.1154 H        1 UNK          0.0000
   89 H        90.4317   78.4409   79.0579 H        1 UNK          0.0000
   90 H        91.9293   79.3830   78.8527 H        1 UNK          0.0000
@<TRIPOS>BOND
     1     1     8   1 
     2     1    11   1 
     3     1    17   1 
     4     1    19   1 
     5     2    11   1 
     6     2    14   1 
     7     2    21   1 
     8     2    24   1 
     9     3    45   1 
    10     3    47   1 
    11     4     5   1 
    12     4    41   1 
    13     6     7   1 
    14     6    43   1 
    15     8    49   1 
    16     9    10   1 
    17     9    56   1 
    18    12    13   1 
    19    12    61   1 
    20    14    70   1 
    21    15    16   1 
    22    15    64   1 
    23    17    18   1 
    24    19    20   1 
    25    21    22   1 
    26    23    81   2 
    27    24    25   1 
    28    26    82   2 
    29    27    45   1 
    30    27    52   1 
    31    27    53   1 
    32    28    58   1 
    33    28    63   ar
    34    28    66   ar
    35    29    53   2 
    36    29    55   1 
    37    30    52   ar
    38    30    79   ar
    39    31    32   1 
    40    31    67   ar
    41    31    68   ar
    42    33    34   1 
    43    33    66   1 
    44    33    82   am
    45    35    69   ar
    46    35    79   ar
    47    36    37   1 
    48    36    81   am
    49    36    82   am
    50    38    39   1 
    51    38    40   1 
    52    38    69   1 
    53    41    42   1 
    54    41    43   1 
    55    41    45   1 
    56    43    44   1 
    57    43    47   1 
    58    45    46   1 
    59    47    48   1 
    60    47    49   1 
    61    49    50   1 
    62    49    51   1 
    63    52    55   ar
    64    53    54   1 
    65    55    69   ar
    66    56    57   1 
    67    56    58   1 
    68    56    61   1 
    69    58    59   1 
    70    58    60   1 
    71    61    62   1 
    72    61    64   1 
    73    63    67   ar
    74    63    73   ar
    75    64    65   1 
    76    64    70   1 
    77    66    68   ar
    78    67    75   ar
    79    68    81   1 
    80    70    71   1 
    81    70    72   1 
    82    73    74   1 
    83    73    77   ar
    84    75    76   1 
    85    75    78   ar
    86    77    78   ar
    87    77    83   1 
    88    78    87   1 
    89    79    80   1 
    90    83    84   1 
    91    83    85   1 
    92    83    86   1 
    93    87    88   1 
    94    87    89   1 
    95    87    90   1 
#MOLECULE END
 
#  inp11.mol2              5    of   10
#                 SCORE =  -315.3799
#              dG-SCORE =    -6.1781
#     LIGAND_EFFICIENCY =    -0.5951
# NUMBER_OF_HEAVY_ATOMS =         53
#                   ASA =  -254.1487
#                   ELE =     0.0000
#                   HYD =   -52.4540
#                   VDW =    -8.7773
#                  RMSD =    30.6395
@<TRIPOS>MOLECULE
inp11.mol2                                                                      
   90   95    0    0    0
SMALL       
GASTEIGER      
 
@<TRIPOS>ATOM
    1 P        88.8200   82.6117   75.6480 P.3      1 UNK          0.0000
    2 P        89.6216   79.9629   74.2907 P.3      1 UNK          0.0000
    3 O        87.6174   83.1548   72.4276 O.3      1 UNK          0.0000
    4 O        88.8242   80.6140   70.3792 O.3      1 UNK          0.0000
    5 H        88.1651   80.1510   69.8417 H        1 UNK          0.0000
    6 O        90.8741   82.2928   71.1647 O.3      1 UNK          0.0000
    7 H        91.1615   82.2863   70.2339 H        1 UNK          0.0000
    8 O        89.3146   83.9659   74.9109 O.3      1 UNK          0.0000
    9 O        92.1509   75.6253   76.6528 O.3      1 UNK          0.0000
   10 H        91.2684   75.9163   76.9548 H        1 UNK          0.0000
   11 O        89.7134   81.2937   75.2718 O.3      1 UNK          0.0000
   12 O        91.7067   77.5173   78.7687 O.3      1 UNK          0.0000
   13 H        90.9586   76.9497   78.4762 H        1 UNK          0.0000
   14 O        91.1155   79.3571   74.0786 O.3      1 UNK          0.0000
   15 O        90.4144   77.8186   76.3989 O.3      1 UNK          0.0000
   16 H        90.7291   76.9842   76.0131 H        1 UNK          0.0000
   17 O        88.7317   82.8569   77.2361 O.3      1 UNK          0.0000
   18 H        89.5932   83.1478   77.5619 H        1 UNK          0.0000
   19 O        87.3131   82.4669   75.2313 O.3      1 UNK          0.0000
   20 H        87.0056   81.6213   75.5946 H        1 UNK          0.0000
   21 O        88.6668   78.7071   74.5921 O.3      1 UNK          0.0000
   22 H        87.7800   79.0424   74.7758 H        1 UNK          0.0000
   23 O        95.9981   71.1950   75.2958 O.2      1 UNK          0.0000
   24 O        88.8770   80.2629   72.9454 O.3      1 UNK          0.0000
   25 H        88.8682   79.4556   72.4026 H        1 UNK          0.0000
   26 O        96.3402   73.6869   78.9005 O.2      1 UNK          0.0000
   27 N        86.0768   82.9242   70.7247 N.ar     1 UNK          0.0000
   28 N        94.4505   75.7829   75.1063 N.ar     1 UNK          0.0000
   29 N        83.9759   83.4452   69.9601 N.ar     1 UNK          0.0000
   30 N        87.1667   85.1090   70.1698 N.ar     1 UNK          0.0000
   31 N        95.0904   73.3392   73.6355 N.ar     1 UNK          0.0000
   32 H        95.3194   72.4871   73.1316 H        1 UNK          0.0000
   33 N        95.5266   74.7658   77.0786 N.am     1 UNK          0.0000
   34 H        95.4080   75.6168   77.5983 H        1 UNK          0.0000
   35 N        85.7172   86.5621   68.8486 N.ar     1 UNK          0.0000
   36 N        96.2070   72.4499   77.0896 N.am     1 UNK          0.0000
   37 H        96.6524   71.6771   77.5946 H        1 UNK          0.0000
   38 N        83.4974   85.9451   68.3327 N.pl3    1 UNK          0.0000
   39 H        83.4476   86.7750   67.7682 H        1 UNK          0.0000
   40 H        82.7156   85.3166   68.4029 H        1 UNK          0.0000
   41 C        88.4540   81.9986   70.4812 C.3      1 UNK          0.0000
   42 H        88.2863   82.3800   69.4690 H        1 UNK          0.0000
   43 C        89.5467   82.8383   71.1939 C.3      1 UNK          0.0000
   44 H        89.5499   83.8306   70.7312 H        1 UNK          0.0000
   45 C        87.1910   82.2350   71.3844 C.3      1 UNK          0.0000
   46 H        86.8336   81.2895   71.8119 H        1 UNK          0.0000
   47 C        89.0217   82.9837   72.6257 C.3      1 UNK          0.0000
   48 H        89.1745   82.0303   73.1358 H        1 UNK          0.0000
   49 C        89.7002   84.0676   73.5096 C.3      1 UNK          0.0000
   50 H        90.7830   83.8956   73.4499 H        1 UNK          0.0000
   51 H        89.5041   85.0673   73.1024 H        1 UNK          0.0000
   52 C        86.1206   84.1977   70.2381 C.ar     1 UNK          0.0000
   53 C        84.7900   82.4682   70.3872 C.ar     1 UNK          0.0000
   54 H        84.4953   81.4386   70.5319 H        1 UNK          0.0000
   55 C        84.8502   84.4461   69.7202 C.ar     1 UNK          0.0000
   56 C        93.0786   76.6066   77.0956 C.3      1 UNK          0.0000
   57 H        93.5898   76.1486   77.9426 H        1 UNK          0.0000
   58 C        94.1065   76.9468   75.9862 C.3      1 UNK          0.0000
   59 H        94.9981   77.3446   76.4836 H        1 UNK          0.0000
   60 H        93.7271   77.7797   75.3771 H        1 UNK          0.0000
   61 C        92.4418   77.9164   77.6084 C.3      1 UNK          0.0000
   62 H        93.2367   78.6034   77.9171 H        1 UNK          0.0000
   63 C        94.0461   75.6196   73.7438 C.ar     1 UNK          0.0000
   64 C        91.5539   78.6416   76.5311 C.3      1 UNK          0.0000
   65 H        91.2510   79.5993   76.9708 H        1 UNK          0.0000
   66 C        95.1471   74.6831   75.7464 C.ar     1 UNK          0.0000
   67 C        94.4154   74.4245   72.9809 C.ar     1 UNK          0.0000
   68 C        95.3616   73.4725   74.9872 C.ar     1 UNK          0.0000
   69 C        84.6691   85.6676   68.9786 C.ar     1 UNK          0.0000
   70 C        92.1032   79.0096   75.1046 C.3      1 UNK          0.0000
   71 H        92.6849   78.1613   74.7321 H        1 UNK          0.0000
   72 H        92.7988   79.8482   75.2161 H        1 UNK          0.0000
   73 C        93.1931   76.5917   73.0630 C.ar     1 UNK          0.0000
   74 H        92.8754   77.4974   73.5676 H        1 UNK          0.0000
   75 C        94.0522   74.2432   71.6428 C.ar     1 UNK          0.0000
   76 H        94.3487   73.3518   71.0956 H        1 UNK          0.0000
   77 C        92.7091   76.3475   71.7592 C.ar     1 UNK          0.0000
   78 C        93.1669   75.1862   71.0054 C.ar     1 UNK          0.0000
   79 C        86.9358   86.2438   69.4161 C.ar     1 UNK          0.0000
   80 H        87.7758   86.9152   69.2419 H        1 UNK          0.0000
   81 C        95.8752   72.2735   75.7734 C.2      1 UNK          0.0000
   82 C        96.0459   73.6408   77.7577 C.2      1 UNK          0.0000
   83 C        91.5998   77.3207   71.2650 C.3      1 UNK          0.0000
   84 H        91.8476   77.7593   70.2981 H        1 UNK          0.0000
   85 H        90.6258   76.8293   71.1620 H        1 UNK          0.0000
   86 H        91.4330   78.1381   71.9762 H        1 UNK          0.0000
   87 C        92.6551   74.7955   69.6149 C.3      1 UNK          0.0000
   88 H        93.0774   73.8387   69.2789 H        1 UNK          0.0000
   89 H        92.8484   75.5628   68.8614 H        1 UNK          0.0000
   90 H        91.5633   74.6438   69.6163 H        1 UNK          0.0000
@<TRIPOS>BOND
     1     1     8   1 
     2     1    11   1 
     3     1    17   1 
     4     1    19   1 
     5     2    11   1 
     6     2    14   1 
     7     2    21   1 
     8     2    24   1 
     9     3    45   1 
    10     3    47   1 
    11     4     5   1 
    12     4    41   1 
    13     6     7   1 
    14     6    43   1 
    15     8    49   1 
    16     9    10   1 
    17     9    56   1 
    18    12    13   1 
    19    12    61   1 
    20    14    70   1 
    21    15    16   1 
    22    15    64   1 
    23    17    18   1 
    24    19    20   1 
    25    21    22   1 
    26    23    81   2 
    27    24    25   1 
    28    26    82   2 
    29    27    45   1 
    30    27    52   1 
    31    27    53   1 
    32    28    58   1 
    33    28    63   ar
    34    28    66   ar
    35    29    53   2 
    36    29    55   1 
    37    30    52   ar
    38    30    79   ar
    39    31    32   1 
    40    31    67   ar
    41    31    68   ar
    42    33    34   1 
    43    33    66   1 
    44    33    82   am
    45    35    69   ar
    46    35    79   ar
    47    36    37   1 
    48    36    81   am
    49    36    82   am
    50    38    39   1 
    51    38    40   1 
    52    38    69   1 
    53    41    42   1 
    54    41    43   1 
    55    41    45   1 
    56    43    44   1 
    57    43    47   1 
    58    45    46   1 
    59    47    48   1 
    60    47    49   1 
    61    49    50   1 
    62    49    51   1 
    63    52    55   ar
    64    53    54   1 
    65    55    69   ar
    66    56    57   1 
    67    56    58   1 
    68    56    61   1 
    69    58    59   1 
    70    58    60   1 
    71    61    62   1 
    72    61    64   1 
    73    63    67   ar
    74    63    73   ar
    75    64    65   1 
    76    64    70   1 
    77    66    68   ar
    78    67    75   ar
    79    68    81   1 
    80    70    71   1 
    81    70    72   1 
    82    73    74   1 
    83    73    77   ar
    84    75    76   1 
    85    75    78   ar
    86    77    78   ar
    87    77    83   1 
    88    78    87   1 
    89    79    80   1 
    90    83    84   1 
    91    83    85   1 
    92    83    86   1 
    93    87    88   1 
    94    87    89   1 
    95    87    90   1 
#MOLECULE END
 
#  inp11.mol2              6    of   10
#                 SCORE =  -300.8083
#              dG-SCORE =    -5.5987
#     LIGAND_EFFICIENCY =    -0.5676
# NUMBER_OF_HEAVY_ATOMS =         53
#                   ASA =  -259.2644
#                   ELE =     0.0000
#                   HYD =   -35.0303
#                   VDW =    -6.5137
#                  RMSD =    31.2320
@<TRIPOS>MOLECULE
inp11.mol2                                                                      
   90   95    0    0    0
SMALL       
GASTEIGER      
 
@<TRIPOS>ATOM
    1 P        89.4008   84.4775   74.5274 P.3      1 UNK          0.0000
    2 P        89.7299   81.5980   73.7926 P.3      1 UNK          0.0000
    3 O        87.3152   84.4575   71.9541 O.3      1 UNK          0.0000
    4 O        87.2317   81.2980   70.4917 O.3      1 UNK          0.0000
    5 H        86.3309   80.9420   70.4134 H        1 UNK          0.0000
    6 O        89.6320   82.7539   69.7728 O.3      1 UNK          0.0000
    7 H        89.5109   82.5474   68.8278 H        1 UNK          0.0000
    8 O        89.6723   85.5243   73.2973 O.3      1 UNK          0.0000
    9 O        94.8129   78.0119   76.6459 O.3      1 UNK          0.0000
   10 H        95.5483   78.6416   76.7757 H        1 UNK          0.0000
   11 O        90.1930   83.0734   74.3064 O.3      1 UNK          0.0000
   12 O        93.3302   80.1625   77.4737 O.3      1 UNK          0.0000
   13 H        92.5274   79.6320   77.6603 H        1 UNK          0.0000
   14 O        90.9685   80.7249   73.1804 O.3      1 UNK          0.0000
   15 O        91.2571   79.9764   75.8210 O.3      1 UNK          0.0000
   16 H        91.3047   79.0772   75.4381 H        1 UNK          0.0000
   17 O        89.9546   85.1817   75.8678 O.3      1 UNK          0.0000
   18 H        90.9014   85.3756   75.7458 H        1 UNK          0.0000
   19 O        87.8194   84.2707   74.7595 O.3      1 UNK          0.0000
   20 H        87.6965   83.6258   75.4731 H        1 UNK          0.0000
   21 O        88.8759   80.8227   74.8821 O.3      1 UNK          0.0000
   22 H        88.3020   81.4624   75.3258 H        1 UNK          0.0000
   23 O        94.7161   72.4759   72.6167 O.2      1 UNK          0.0000
   24 O        88.6028   81.5871   72.6982 O.3      1 UNK          0.0000
   25 H        88.4257   80.6700   72.4234 H        1 UNK          0.0000
   26 O        93.4812   76.4096   70.6634 O.2      1 UNK          0.0000
   27 N        85.2654   84.1003   71.1307 N.ar     1 UNK          0.0000
   28 N        93.0788   76.2299   75.3268 N.ar     1 UNK          0.0000
   29 N        83.1077   84.6362   70.8825 N.ar     1 UNK          0.0000
   30 N        86.1988   85.6826   69.4904 N.ar     1 UNK          0.0000
   31 N        93.6131   73.3720   75.2183 N.ar     1 UNK          0.0000
   32 H        93.7369   72.3635   75.1215 H        1 UNK          0.0000
   33 N        93.3652   76.3372   72.8850 N.am     1 UNK          0.0000
   34 H        93.0260   77.2915   72.8936 H        1 UNK          0.0000
   35 N        84.4380   86.7231   68.1626 N.ar     1 UNK          0.0000
   36 N        94.1246   74.4213   71.5654 N.am     1 UNK          0.0000
   37 H        94.2987   74.0331   70.6612 H        1 UNK          0.0000
   38 N        82.1737   86.5317   68.8068 N.pl3    1 UNK          0.0000
   39 H        81.8780   87.1601   68.0973 H        1 UNK          0.0000
   40 H        81.4891   86.1112   69.4165 H        1 UNK          0.0000
   41 C        87.1474   82.7155   70.2790 C.3      1 UNK          0.0000
   42 H        86.5692   82.8811   69.3631 H        1 UNK          0.0000
   43 C        88.4853   83.5046   70.1897 C.3      1 UNK          0.0000
   44 H        88.3261   84.3409   69.4981 H        1 UNK          0.0000
   45 C        86.4603   83.3964   71.5049 C.3      1 UNK          0.0000
   46 H        86.2571   82.6901   72.3051 H        1 UNK          0.0000
   47 C        88.6377   84.0898   71.5997 C.3      1 UNK          0.0000
   48 H        88.9500   83.2779   72.2557 H        1 UNK          0.0000
   49 C        89.6136   85.2547   71.8598 C.3      1 UNK          0.0000
   50 H        90.6036   84.9508   71.4927 H        1 UNK          0.0000
   51 H        89.3023   86.1422   71.2934 H        1 UNK          0.0000
   52 C        85.2008   85.0602   70.2044 C.ar     1 UNK          0.0000
   53 C        83.9937   84.0460   71.6332 C.ar     1 UNK          0.0000
   54 H        83.7632   83.4502   72.5024 H        1 UNK          0.0000
   55 C        83.8561   85.3125   70.0339 C.ar     1 UNK          0.0000
   56 C        93.9444   78.6033   75.6689 C.3      1 UNK          0.0000
   57 H        94.4571   78.6351   74.6998 H        1 UNK          0.0000
   58 C        92.7169   77.6806   75.4665 C.3      1 UNK          0.0000
   59 H        92.1539   78.0332   74.5861 H        1 UNK          0.0000
   60 H        92.0141   77.8218   76.2965 H        1 UNK          0.0000
   61 C        93.5880   80.0870   76.0539 C.3      1 UNK          0.0000
   62 H        94.4616   80.7073   75.8169 H        1 UNK          0.0000
   63 C        92.9399   75.4140   76.5103 C.ar     1 UNK          0.0000
   64 C        92.3511   80.6749   75.2898 C.3      1 UNK          0.0000
   65 H        92.2459   81.7426   75.5228 H        1 UNK          0.0000
   66 C        93.4482   75.6170   74.1178 C.ar     1 UNK          0.0000
   67 C        93.2173   73.9770   76.4050 C.ar     1 UNK          0.0000
   68 C        93.8178   74.1971   74.0477 C.ar     1 UNK          0.0000
   69 C        83.4719   86.2057   69.0018 C.ar     1 UNK          0.0000
   70 C        92.3033   80.5168   73.7330 C.3      1 UNK          0.0000
   71 H        92.6361   79.5066   73.4607 H        1 UNK          0.0000
   72 H        93.0108   81.2189   73.2727 H        1 UNK          0.0000
   73 C        92.5069   75.9978   77.7137 C.ar     1 UNK          0.0000
   74 H        92.2338   77.0450   77.8216 H        1 UNK          0.0000
   75 C        93.0843   73.1900   77.5953 C.ar     1 UNK          0.0000
   76 H        93.2442   72.1160   77.5538 H        1 UNK          0.0000
   77 C        92.4302   75.2184   78.8775 C.ar     1 UNK          0.0000
   78 C        92.7897   73.8406   78.8042 C.ar     1 UNK          0.0000
   79 C        85.7684   86.4522   68.4531 C.ar     1 UNK          0.0000
   80 H        86.5281   86.8746   67.8002 H        1 UNK          0.0000
   81 C        94.2915   73.6266   72.7340 C.2      1 UNK          0.0000
   82 C        93.6600   75.7515   71.6699 C.2      1 UNK          0.0000
   83 C        91.9724   75.9439   80.1243 C.3      1 UNK          0.0000
   84 H        92.7813   75.9431   80.8636 H        1 UNK          0.0000
   85 H        91.7147   76.9841   79.9145 H        1 UNK          0.0000
   86 H        91.1231   75.4730   80.6186 H        1 UNK          0.0000
   87 C        92.8786   73.0264   80.0691 C.3      1 UNK          0.0000
   88 H        93.1352   71.9955   79.8036 H        1 UNK          0.0000
   89 H        91.9228   73.0178   80.6067 H        1 UNK          0.0000
   90 H        93.6682   73.4025   80.7237 H        1 UNK          0.0000
@<TRIPOS>BOND
     1     1     8   1 
     2     1    11   1 
     3     1    17   1 
     4     1    19   1 
     5     2    11   1 
     6     2    14   1 
     7     2    21   1 
     8     2    24   1 
     9     3    45   1 
    10     3    47   1 
    11     4     5   1 
    12     4    41   1 
    13     6     7   1 
    14     6    43   1 
    15     8    49   1 
    16     9    10   1 
    17     9    56   1 
    18    12    13   1 
    19    12    61   1 
    20    14    70   1 
    21    15    16   1 
    22    15    64   1 
    23    17    18   1 
    24    19    20   1 
    25    21    22   1 
    26    23    81   2 
    27    24    25   1 
    28    26    82   2 
    29    27    45   1 
    30    27    52   1 
    31    27    53   1 
    32    28    58   1 
    33    28    63   ar
    34    28    66   ar
    35    29    53   2 
    36    29    55   1 
    37    30    52   ar
    38    30    79   ar
    39    31    32   1 
    40    31    67   ar
    41    31    68   ar
    42    33    34   1 
    43    33    66   1 
    44    33    82   am
    45    35    69   ar
    46    35    79   ar
    47    36    37   1 
    48    36    81   am
    49    36    82   am
    50    38    39   1 
    51    38    40   1 
    52    38    69   1 
    53    41    42   1 
    54    41    43   1 
    55    41    45   1 
    56    43    44   1 
    57    43    47   1 
    58    45    46   1 
    59    47    48   1 
    60    47    49   1 
    61    49    50   1 
    62    49    51   1 
    63    52    55   ar
    64    53    54   1 
    65    55    69   ar
    66    56    57   1 
    67    56    58   1 
    68    56    61   1 
    69    58    59   1 
    70    58    60   1 
    71    61    62   1 
    72    61    64   1 
    73    63    67   ar
    74    63    73   ar
    75    64    65   1 
    76    64    70   1 
    77    66    68   ar
    78    67    75   ar
    79    68    81   1 
    80    70    71   1 
    81    70    72   1 
    82    73    74   1 
    83    73    77   ar
    84    75    76   1 
    85    75    78   ar
    86    77    78   ar
    87    77    83   1 
    88    78    87   1 
    89    79    80   1 
    90    83    84   1 
    91    83    85   1 
    92    83    86   1 
    93    87    88   1 
    94    87    89   1 
    95    87    90   1 
#MOLECULE END
 
#  inp11.mol2              7    of   10
#                 SCORE =  -294.2704
#              dG-SCORE =    -7.4629
#     LIGAND_EFFICIENCY =    -0.5552
# NUMBER_OF_HEAVY_ATOMS =         53
#                   ASA =  -134.1410
#                   ELE =     0.0000
#                   HYD =  -160.1294
#                   VDW =     0.0000
#                  RMSD =    29.5506
@<TRIPOS>MOLECULE
inp11.mol2                                                                      
   90   95    0    0    0
SMALL       
GASTEIGER      
 
@<TRIPOS>ATOM
    1 P        91.7632   78.4729   69.3117 P.3      1 UNK          0.0000
    2 P        92.2159   77.8021   72.1050 P.3      1 UNK          0.0000
    3 O        89.0950   79.8900   70.4073 O.3      1 UNK          0.0000
    4 O        89.0271   79.2881   73.6876 O.3      1 UNK          0.0000
    5 H        88.5659   79.6116   74.4825 H        1 UNK          0.0000
    6 O        88.2748   76.9944   72.3831 O.3      1 UNK          0.0000
    7 H        88.8033   76.4016   71.8165 H        1 UNK          0.0000
    8 O        90.4536   77.7739   68.6784 O.3      1 UNK          0.0000
    9 O        95.7194   75.7472   74.8217 O.3      1 UNK          0.0000
   10 H        96.1900   76.5075   74.4163 H        1 UNK          0.0000
   11 O        92.3921   77.5938   70.5127 O.3      1 UNK          0.0000
   12 O        96.8178   75.7847   71.9902 O.3      1 UNK          0.0000
   13 H        96.9818   76.5428   72.5845 H        1 UNK          0.0000
   14 O        92.0527   76.3800   72.8591 O.3      1 UNK          0.0000
   15 O        94.6510   77.3026   72.8966 O.3      1 UNK          0.0000
   16 H        95.2356   77.1257   73.6609 H        1 UNK          0.0000
   17 O        92.8627   78.5578   68.1416 O.3      1 UNK          0.0000
   18 H        93.0261   77.6558   67.8149 H        1 UNK          0.0000
   19 O        91.4228   79.9795   69.7625 O.3      1 UNK          0.0000
   20 H        92.2525   80.4250   70.0041 H        1 UNK          0.0000
   21 O        93.4440   78.6165   72.7504 O.3      1 UNK          0.0000
   22 H        93.5569   79.4513   72.2650 H        1 UNK          0.0000
   23 O        96.8752   71.1512   79.6286 O.2      1 UNK          0.0000
   24 O        90.8722   78.6418   72.3461 O.3      1 UNK          0.0000
   25 H        90.9609   79.5051   71.9018 H        1 UNK          0.0000
   26 O        98.5625   70.4950   75.5229 O.2      1 UNK          0.0000
   27 N        87.8049   81.6560   71.3226 N.ar     1 UNK          0.0000
   28 N        94.8244   73.2955   75.8339 N.ar     1 UNK          0.0000
   29 N        86.9461   83.7666   71.1019 N.ar     1 UNK          0.0000
   30 N        85.9478   80.4940   70.1725 N.ar     1 UNK          0.0000
   31 N        94.8467   72.8455   78.6582 N.ar     1 UNK          0.0000
   32 H        94.8507   72.6447   79.6567 H        1 UNK          0.0000
   33 N        96.7773   71.8329   75.6680 N.am     1 UNK          0.0000
   34 H        96.8133   71.9592   74.6657 H        1 UNK          0.0000
   35 N        84.2136   82.0035   69.4034 N.ar     1 UNK          0.0000
   36 N        97.7710   70.7793   77.6021 N.am     1 UNK          0.0000
   37 H        98.4863   70.1753   77.9865 H        1 UNK          0.0000
   38 N        84.3766   84.3183   69.7644 N.pl3    1 UNK          0.0000
   39 H        83.4042   84.3953   69.5049 H        1 UNK          0.0000
   40 H        84.7834   85.0563   70.3218 H        1 UNK          0.0000
   41 C        88.1480   79.4709   72.5694 C.3      1 UNK          0.0000
   42 H        87.1326   79.7240   72.9002 H        1 UNK          0.0000
   43 C        88.1337   78.2235   71.6664 C.3      1 UNK          0.0000
   44 H        87.1961   78.2138   71.0955 H        1 UNK          0.0000
   45 C        88.7381   80.5677   71.6361 C.3      1 UNK          0.0000
   46 H        89.6339   81.0106   72.0903 H        1 UNK          0.0000
   47 C        89.2907   78.4970   70.7012 C.3      1 UNK          0.0000
   48 H        90.2497   78.3399   71.2124 H        1 UNK          0.0000
   49 C        89.2186   77.6432   69.4109 C.3      1 UNK          0.0000
   50 H        89.0754   76.5917   69.6901 H        1 UNK          0.0000
   51 H        88.3592   77.9541   68.8038 H        1 UNK          0.0000
   52 C        86.6120   81.5615   70.6605 C.ar     1 UNK          0.0000
   53 C        87.9638   83.0285   71.5706 C.ar     1 UNK          0.0000
   54 H        88.8373   83.4180   72.0796 H        1 UNK          0.0000
   55 C        86.1314   82.8382   70.5482 C.ar     1 UNK          0.0000
   56 C        95.8516   74.6481   73.9162 C.3      1 UNK          0.0000
   57 H        96.8726   74.2492   73.9926 H        1 UNK          0.0000
   58 C        94.8583   73.5283   74.3465 C.3      1 UNK          0.0000
   59 H        95.1366   72.5969   73.8326 H        1 UNK          0.0000
   60 H        93.8553   73.7621   73.9689 H        1 UNK          0.0000
   61 C        95.6389   75.1099   72.4374 C.3      1 UNK          0.0000
   62 H        95.4776   74.2178   71.8157 H        1 UNK          0.0000
   63 C        93.9308   73.9972   76.6973 C.ar     1 UNK          0.0000
   64 C        94.3978   76.0448   72.2715 C.3      1 UNK          0.0000
   65 H        94.2300   76.2142   71.2000 H        1 UNK          0.0000
   66 C        95.7987   72.4617   76.4303 C.ar     1 UNK          0.0000
   67 C        93.9450   73.7520   78.0986 C.ar     1 UNK          0.0000
   68 C        95.7963   72.2491   77.8291 C.ar     1 UNK          0.0000
   69 C        84.9001   83.0561   69.9018 C.ar     1 UNK          0.0000
   70 C        93.1039   75.3987   72.8448 C.3      1 UNK          0.0000
   71 H        93.2858   75.0117   73.8549 H        1 UNK          0.0000
   72 H        92.8013   74.5556   72.2113 H        1 UNK          0.0000
   73 C        93.0033   74.9448   76.1959 C.ar     1 UNK          0.0000
   74 H        92.9576   75.1887   75.1399 H        1 UNK          0.0000
   75 C        93.0626   74.4323   78.9567 C.ar     1 UNK          0.0000
   76 H        93.0914   74.2484   80.0282 H        1 UNK          0.0000
   77 C        92.1208   75.6248   77.0564 C.ar     1 UNK          0.0000
   78 C        92.1497   75.3680   78.4443 C.ar     1 UNK          0.0000
   79 C        84.7723   80.7782   69.5644 C.ar     1 UNK          0.0000
   80 H        84.2159   79.9336   69.1615 H        1 UNK          0.0000
   81 C        96.8384   71.3625   78.4328 C.2      1 UNK          0.0000
   82 C        97.7371   71.0138   76.2409 C.2      1 UNK          0.0000
   83 C        91.1378   76.6385   76.4679 C.3      1 UNK          0.0000
   84 H        91.3055   77.6398   76.8844 H        1 UNK          0.0000
   85 H        91.2449   76.7053   75.3777 H        1 UNK          0.0000
   86 H        90.0944   76.3652   76.6687 H        1 UNK          0.0000
   87 C        91.2028   76.0920   79.4020 C.3      1 UNK          0.0000
   88 H        91.3661   75.7724   80.4395 H        1 UNK          0.0000
   89 H        90.1535   75.8918   79.1498 H        1 UNK          0.0000
   90 H        91.3428   77.1801   79.3731 H        1 UNK          0.0000
@<TRIPOS>BOND
     1     1     8   1 
     2     1    11   1 
     3     1    17   1 
     4     1    19   1 
     5     2    11   1 
     6     2    14   1 
     7     2    21   1 
     8     2    24   1 
     9     3    45   1 
    10     3    47   1 
    11     4     5   1 
    12     4    41   1 
    13     6     7   1 
    14     6    43   1 
    15     8    49   1 
    16     9    10   1 
    17     9    56   1 
    18    12    13   1 
    19    12    61   1 
    20    14    70   1 
    21    15    16   1 
    22    15    64   1 
    23    17    18   1 
    24    19    20   1 
    25    21    22   1 
    26    23    81   2 
    27    24    25   1 
    28    26    82   2 
    29    27    45   1 
    30    27    52   1 
    31    27    53   1 
    32    28    58   1 
    33    28    63   ar
    34    28    66   ar
    35    29    53   2 
    36    29    55   1 
    37    30    52   ar
    38    30    79   ar
    39    31    32   1 
    40    31    67   ar
    41    31    68   ar
    42    33    34   1 
    43    33    66   1 
    44    33    82   am
    45    35    69   ar
    46    35    79   ar
    47    36    37   1 
    48    36    81   am
    49    36    82   am
    50    38    39   1 
    51    38    40   1 
    52    38    69   1 
    53    41    42   1 
    54    41    43   1 
    55    41    45   1 
    56    43    44   1 
    57    43    47   1 
    58    45    46   1 
    59    47    48   1 
    60    47    49   1 
    61    49    50   1 
    62    49    51   1 
    63    52    55   ar
    64    53    54   1 
    65    55    69   ar
    66    56    57   1 
    67    56    58   1 
    68    56    61   1 
    69    58    59   1 
    70    58    60   1 
    71    61    62   1 
    72    61    64   1 
    73    63    67   ar
    74    63    73   ar
    75    64    65   1 
    76    64    70   1 
    77    66    68   ar
    78    67    75   ar
    79    68    81   1 
    80    70    71   1 
    81    70    72   1 
    82    73    74   1 
    83    73    77   ar
    84    75    76   1 
    85    75    78   ar
    86    77    78   ar
    87    77    83   1 
    88    78    87   1 
    89    79    80   1 
    90    83    84   1 
    91    83    85   1 
    92    83    86   1 
    93    87    88   1 
    94    87    89   1 
    95    87    90   1 
#MOLECULE END
 
#  inp11.mol2              8    of   10
#                 SCORE =  -254.8703
#              dG-SCORE =    -4.4312
#     LIGAND_EFFICIENCY =    -0.4809
# NUMBER_OF_HEAVY_ATOMS =         53
#                   ASA =  -211.3981
#                   ELE =     0.0000
#                   HYD =   -36.8839
#                   VDW =    -6.5884
#                  RMSD =    29.8904
@<TRIPOS>MOLECULE
inp11.mol2                                                                      
   90   95    0    0    0
SMALL       
GASTEIGER      
 
@<TRIPOS>ATOM
    1 P        93.1969   81.3489   75.7794 P.3      1 UNK          0.0000
    2 P        91.4449   80.1733   73.6688 P.3      1 UNK          0.0000
    3 O        90.5126   83.1800   76.2099 O.3      1 UNK          0.0000
    4 O        88.1691   82.6734   73.7736 O.3      1 UNK          0.0000
    5 H        87.2046   82.6413   73.8943 H        1 UNK          0.0000
    6 O        90.2372   84.2247   72.7950 O.3      1 UNK          0.0000
    7 H        89.5765   84.8151   72.3949 H        1 UNK          0.0000
    8 O        93.3894   82.9675   75.6877 O.3      1 UNK          0.0000
    9 O        95.3905   76.9436   72.9952 O.3      1 UNK          0.0000
   10 H        95.9312   77.7343   72.7982 H        1 UNK          0.0000
   11 O        92.8378   80.6855   74.3408 O.3      1 UNK          0.0000
   12 O        95.2952   78.4655   70.4129 O.3      1 UNK          0.0000
   13 H        95.8416   78.7531   71.1696 H        1 UNK          0.0000
   14 O        91.4936   80.2444   72.0332 O.3      1 UNK          0.0000
   15 O        92.2428   77.6023   72.2869 O.3      1 UNK          0.0000
   16 H        91.8728   77.1248   71.5282 H        1 UNK          0.0000
   17 O        94.5926   80.7428   76.3022 O.3      1 UNK          0.0000
   18 H        95.2924   80.9782   75.6697 H        1 UNK          0.0000
   19 O        92.1354   80.9638   76.9228 O.3      1 UNK          0.0000
   20 H        92.1333   79.9970   76.9988 H        1 UNK          0.0000
   21 O        90.9733   78.7533   74.2198 O.3      1 UNK          0.0000
   22 H        91.2695   78.6382   75.1317 H        1 UNK          0.0000
   23 O        96.5702   70.3891   73.8430 O.2      1 UNK          0.0000
   24 O        90.1575   80.9658   74.1036 O.3      1 UNK          0.0000
   25 H        89.4029   80.6472   73.5784 H        1 UNK          0.0000
   26 O        96.1181   71.8904   69.6111 O.2      1 UNK          0.0000
   27 N        88.6906   83.6272   77.2382 N.ar     1 UNK          0.0000
   28 N        94.1335   74.4050   73.0867 N.ar     1 UNK          0.0000
   29 N        87.9208   83.9153   79.3164 N.ar     1 UNK          0.0000
   30 N        89.2579   86.0535   76.7936 N.ar     1 UNK          0.0000
   31 N        94.7922   72.2961   74.9468 N.ar     1 UNK          0.0000
   32 H        95.0397   71.5057   75.5525 H        1 UNK          0.0000
   33 N        95.1193   73.0822   71.2355 N.am     1 UNK          0.0000
   34 H        94.8147   73.7682   70.5580 H        1 UNK          0.0000
   35 N        87.9310   87.5262   78.2353 N.ar     1 UNK          0.0000
   36 N        96.3371   71.0626   71.6731 N.am     1 UNK          0.0000
   37 H        96.8895   70.3009   71.3307 H        1 UNK          0.0000
   38 N        86.9610   86.6659   80.2178 N.pl3    1 UNK          0.0000
   39 H        86.7206   87.5966   80.4954 H        1 UNK          0.0000
   40 H        86.6412   85.8776   80.7643 H        1 UNK          0.0000
   41 C        88.6764   83.6427   74.6925 C.3      1 UNK          0.0000
   42 H        87.9202   84.4212   74.8491 H        1 UNK          0.0000
   43 C        90.0202   84.2444   74.2109 C.3      1 UNK          0.0000
   44 H        90.0753   85.2712   74.5869 H        1 UNK          0.0000
   45 C        89.1041   82.9746   76.0350 C.3      1 UNK          0.0000
   46 H        88.8352   81.9156   76.0684 H        1 UNK          0.0000
   47 C        91.0781   83.4035   74.9343 C.3      1 UNK          0.0000
   48 H        91.1404   82.4360   74.4356 H        1 UNK          0.0000
   49 C        92.5191   83.9452   75.0413 C.3      1 UNK          0.0000
   50 H        92.8734   84.1321   74.0195 H        1 UNK          0.0000
   51 H        92.5256   84.9021   75.5788 H        1 UNK          0.0000
   52 C        88.7765   84.9665   77.5078 C.ar     1 UNK          0.0000
   53 C        88.2399   83.0033   78.3861 C.ar     1 UNK          0.0000
   54 H        88.1241   81.9360   78.4769 H        1 UNK          0.0000
   55 C        88.1368   85.1135   78.7134 C.ar     1 UNK          0.0000
   56 C        94.8457   76.4827   71.7489 C.3      1 UNK          0.0000
   57 H        95.6389   76.0156   71.1512 H        1 UNK          0.0000
   58 C        93.7638   75.4157   72.0509 C.3      1 UNK          0.0000
   59 H        93.5373   74.8921   71.1074 H        1 UNK          0.0000
   60 H        92.8336   75.8966   72.3364 H        1 UNK          0.0000
   61 C        94.2267   77.6612   70.9173 C.3      1 UNK          0.0000
   62 H        93.6579   77.2388   70.0767 H        1 UNK          0.0000
   63 C        93.8156   74.5528   74.5181 C.ar     1 UNK          0.0000
   64 C        93.2370   78.4931   71.7989 C.3      1 UNK          0.0000
   65 H        93.8060   78.9024   72.6463 H        1 UNK          0.0000
   66 C        94.7899   73.2726   72.6263 C.ar     1 UNK          0.0000
   67 C        94.1306   73.4174   75.4079 C.ar     1 UNK          0.0000
   68 C        95.1896   72.2357   73.5622 C.ar     1 UNK          0.0000
   69 C        87.6990   86.4552   79.0852 C.ar     1 UNK          0.0000
   70 C        92.5141   79.7034   71.1415 C.3      1 UNK          0.0000
   71 H        92.0526   79.3883   70.1976 H        1 UNK          0.0000
   72 H        93.2518   80.4807   70.9001 H        1 UNK          0.0000
   73 C        93.2417   75.7223   75.0636 C.ar     1 UNK          0.0000
   74 H        93.0656   76.6053   74.4524 H        1 UNK          0.0000
   75 C        93.7676   73.5078   76.7984 C.ar     1 UNK          0.0000
   76 H        94.0057   72.6827   77.4697 H        1 UNK          0.0000
   77 C        92.8521   75.8080   76.4483 C.ar     1 UNK          0.0000
   78 C        93.1337   74.6676   77.2853 C.ar     1 UNK          0.0000
   79 C        88.8542   87.3022   77.2352 C.ar     1 UNK          0.0000
   80 H        89.3312   88.1644   76.7885 H        1 UNK          0.0000
   81 C        96.0587   71.1615   73.0584 C.2      1 UNK          0.0000
   82 C        95.8531   72.0089   70.7884 C.2      1 UNK          0.0000
   83 C        92.1640   77.0756   76.9538 C.3      1 UNK          0.0000
   84 H        92.8171   77.6527   77.6177 H        1 UNK          0.0000
   85 H        91.8744   77.7303   76.1188 H        1 UNK          0.0000
   86 H        91.2498   76.8742   77.5289 H        1 UNK          0.0000
   87 C        92.7896   74.7293   78.7565 C.3      1 UNK          0.0000
   88 H        93.1502   73.8450   79.2924 H        1 UNK          0.0000
   89 H        91.7194   74.8219   78.9055 H        1 UNK          0.0000
   90 H        93.2422   75.6180   79.1977 H        1 UNK          0.0000
@<TRIPOS>BOND
     1     1     8   1 
     2     1    11   1 
     3     1    17   1 
     4     1    19   1 
     5     2    11   1 
     6     2    14   1 
     7     2    21   1 
     8     2    24   1 
     9     3    45   1 
    10     3    47   1 
    11     4     5   1 
    12     4    41   1 
    13     6     7   1 
    14     6    43   1 
    15     8    49   1 
    16     9    10   1 
    17     9    56   1 
    18    12    13   1 
    19    12    61   1 
    20    14    70   1 
    21    15    16   1 
    22    15    64   1 
    23    17    18   1 
    24    19    20   1 
    25    21    22   1 
    26    23    81   2 
    27    24    25   1 
    28    26    82   2 
    29    27    45   1 
    30    27    52   1 
    31    27    53   1 
    32    28    58   1 
    33    28    63   ar
    34    28    66   ar
    35    29    53   2 
    36    29    55   1 
    37    30    52   ar
    38    30    79   ar
    39    31    32   1 
    40    31    67   ar
    41    31    68   ar
    42    33    34   1 
    43    33    66   1 
    44    33    82   am
    45    35    69   ar
    46    35    79   ar
    47    36    37   1 
    48    36    81   am
    49    36    82   am
    50    38    39   1 
    51    38    40   1 
    52    38    69   1 
    53    41    42   1 
    54    41    43   1 
    55    41    45   1 
    56    43    44   1 
    57    43    47   1 
    58    45    46   1 
    59    47    48   1 
    60    47    49   1 
    61    49    50   1 
    62    49    51   1 
    63    52    55   ar
    64    53    54   1 
    65    55    69   ar
    66    56    57   1 
    67    56    58   1 
    68    56    61   1 
    69    58    59   1 
    70    58    60   1 
    71    61    62   1 
    72    61    64   1 
    73    63    67   ar
    74    63    73   ar
    75    64    65   1 
    76    64    70   1 
    77    66    68   ar
    78    67    75   ar
    79    68    81   1 
    80    70    71   1 
    81    70    72   1 
    82    73    74   1 
    83    73    77   ar
    84    75    76   1 
    85    75    78   ar
    86    77    78   ar
    87    77    83   1 
    88    78    87   1 
    89    79    80   1 
    90    83    84   1 
    91    83    85   1 
    92    83    86   1 
    93    87    88   1 
    94    87    89   1 
    95    87    90   1 
#MOLECULE END
 
#  inp11.mol2              9    of   10
#                 SCORE =  -286.3380
#              dG-SCORE =    -7.0009
#     LIGAND_EFFICIENCY =    -0.5403
# NUMBER_OF_HEAVY_ATOMS =         53
#                   ASA =  -143.3801
#                   ELE =     0.0000
#                   HYD =  -142.9579
#                   VDW =     0.0000
#                  RMSD =    30.9668
@<TRIPOS>MOLECULE
inp11.mol2                                                                      
   90   95    0    0    0
SMALL       
GASTEIGER      
 
@<TRIPOS>ATOM
    1 P        92.6623   79.3468   75.5738 P.3      1 UNK          0.0000
    2 P        94.4469   79.4994   73.2826 P.3      1 UNK          0.0000
    3 O        93.8264   76.3679   75.8885 O.3      1 UNK          0.0000
    4 O        95.9152   75.9324   73.3244 O.3      1 UNK          0.0000
    5 H        96.6227   75.3207   73.0515 H        1 UNK          0.0000
    6 O        93.3479   75.7263   72.3785 O.3      1 UNK          0.0000
    7 H        93.0647   74.8738   71.9978 H        1 UNK          0.0000
    8 O        91.4808   78.2600   75.4074 O.3      1 UNK          0.0000
    9 O        91.7086   82.2169   70.0659 O.3      1 UNK          0.0000
   10 H        92.4093   81.8379   69.4922 H        1 UNK          0.0000
   11 O        93.1506   79.9267   74.1469 O.3      1 UNK          0.0000
   12 O        94.5710   83.2253   69.9447 O.3      1 UNK          0.0000
   13 H        94.2801   82.5163   69.3385 H        1 UNK          0.0000
   14 O        94.0975   79.4491   71.7037 O.3      1 UNK          0.0000
   15 O        95.2318   81.8467   72.4579 O.3      1 UNK          0.0000
   16 H        95.8185   82.3382   71.8485 H        1 UNK          0.0000
   17 O        92.0563   80.5739   76.4177 O.3      1 UNK          0.0000
   18 H        91.2813   80.9161   75.9387 H        1 UNK          0.0000
   19 O        93.8713   78.7226   76.4327 O.3      1 UNK          0.0000
   20 H        94.5009   79.4331   76.6423 H        1 UNK          0.0000
   21 O        95.6926   80.4874   73.5277 O.3      1 UNK          0.0000
   22 H        95.8689   80.5396   74.4824 H        1 UNK          0.0000
   23 O        86.0410   85.8051   69.3114 O.2      1 UNK          0.0000
   24 O        94.8770   78.0238   73.7367 O.3      1 UNK          0.0000
   25 H        94.1305   77.4182   73.5739 H        1 UNK          0.0000
   26 O        89.9924   87.9314   69.3174 O.2      1 UNK          0.0000
   27 N        95.3534   74.7100   76.6235 N.ar     1 UNK          0.0000
   28 N        89.8432   83.7715   71.4588 N.ar     1 UNK          0.0000
   29 N        96.3254   73.5814   78.3621 N.ar     1 UNK          0.0000
   30 N        93.3814   73.2300   76.4178 N.ar     1 UNK          0.0000
   31 N        87.0758   83.6191   70.7528 N.ar     1 UNK          0.0000
   32 H        86.0840   83.6002   70.5222 H        1 UNK          0.0000
   33 N        89.9244   85.9450   70.3409 N.am     1 UNK          0.0000
   34 H        90.9047   86.0477   70.5654 H        1 UNK          0.0000
   35 N        93.3857   71.4126   78.0224 N.ar     1 UNK          0.0000
   36 N        87.9888   86.9244   69.2770 N.am     1 UNK          0.0000
   37 H        87.5825   87.6927   68.7583 H        1 UNK          0.0000
   38 N        95.1331   71.1713   79.5728 N.pl3    1 UNK          0.0000
   39 H        94.7861   70.2446   79.7719 H        1 UNK          0.0000
   40 H        96.0968   71.3795   79.7934 H        1 UNK          0.0000
   41 C        95.0047   75.2014   74.1570 C.3      1 UNK          0.0000
   42 H        95.2044   74.1231   74.1122 H        1 UNK          0.0000
   43 C        93.5431   75.5028   73.7771 C.3      1 UNK          0.0000
   44 H        92.9140   74.6670   74.1100 H        1 UNK          0.0000
   45 C        95.1035   75.7439   75.6124 C.3      1 UNK          0.0000
   46 H        95.9056   76.4897   75.6857 H        1 UNK          0.0000
   47 C        93.2210   76.7290   74.6362 C.3      1 UNK          0.0000
   48 H        93.7055   77.6194   74.2141 H        1 UNK          0.0000
   49 C        91.7001   76.9686   74.8049 C.3      1 UNK          0.0000
   50 H        91.2269   76.9483   73.8150 H        1 UNK          0.0000
   51 H        91.2594   76.1658   75.4091 H        1 UNK          0.0000
   52 C        94.5505   73.6500   76.9428 C.ar     1 UNK          0.0000
   53 C        96.4279   74.6231   77.5227 C.ar     1 UNK          0.0000
   54 H        97.2336   75.3475   77.5193 H        1 UNK          0.0000
   55 C        95.1624   73.0024   77.9819 C.ar     1 UNK          0.0000
   56 C        92.2421   83.4164   70.6335 C.3      1 UNK          0.0000
   57 H        92.2443   84.2002   69.8633 H        1 UNK          0.0000
   58 C        91.3080   83.8755   71.7921 C.3      1 UNK          0.0000
   59 H        91.5556   84.9151   72.0506 H        1 UNK          0.0000
   60 H        91.5396   83.3036   72.6990 H        1 UNK          0.0000
   61 C        93.7218   83.2095   71.0951 C.3      1 UNK          0.0000
   62 H        93.9977   84.0424   71.7572 H        1 UNK          0.0000
   63 C        89.0814   82.5933   71.7200 C.ar     1 UNK          0.0000
   64 C        93.9247   81.8768   71.8857 C.3      1 UNK          0.0000
   65 H        93.1866   81.8374   72.6972 H        1 UNK          0.0000
   66 C        89.2184   84.8133   70.7345 C.ar     1 UNK          0.0000
   67 C        87.7023   82.5384   71.3752 C.ar     1 UNK          0.0000
   68 C        87.8484   84.7229   70.3928 C.ar     1 UNK          0.0000
   69 C        94.5580   71.8552   78.5299 C.ar     1 UNK          0.0000
   70 C        93.6907   80.6281   70.9877 C.3      1 UNK          0.0000
   71 H        94.2499   80.7230   70.0489 H        1 UNK          0.0000
   72 H        92.6254   80.5485   70.7379 H        1 UNK          0.0000
   73 C        89.6613   81.4537   72.3321 C.ar     1 UNK          0.0000
   74 H        90.7120   81.4279   72.6006 H        1 UNK          0.0000
   75 C        86.9411   81.3850   71.6362 C.ar     1 UNK          0.0000
   76 H        85.8911   81.3478   71.3553 H        1 UNK          0.0000
   77 C        88.8978   80.3000   72.5926 C.ar     1 UNK          0.0000
   78 C        87.5304   80.2644   72.2432 C.ar     1 UNK          0.0000
   79 C        92.8586   72.1221   76.9937 C.ar     1 UNK          0.0000
   80 H        91.9146   71.7620   76.5883 H        1 UNK          0.0000
   81 C        87.2138   85.8394   69.6265 C.2      1 UNK          0.0000
   82 C        89.3234   86.9722   69.6310 C.2      1 UNK          0.0000
   83 C        89.5684   79.0953   73.2551 C.3      1 UNK          0.0000
   84 H        89.5184   78.2098   72.6087 H        1 UNK          0.0000
   85 H        90.6261   79.2987   73.4659 H        1 UNK          0.0000
   86 H        89.0978   78.8359   74.2115 H        1 UNK          0.0000
   87 C        86.6773   79.0247   72.5144 C.3      1 UNK          0.0000
   88 H        85.6433   79.1722   72.1764 H        1 UNK          0.0000
   89 H        86.6504   78.7880   73.5857 H        1 UNK          0.0000
   90 H        87.0640   78.1388   71.9947 H        1 UNK          0.0000
@<TRIPOS>BOND
     1     1     8   1 
     2     1    11   1 
     3     1    17   1 
     4     1    19   1 
     5     2    11   1 
     6     2    14   1 
     7     2    21   1 
     8     2    24   1 
     9     3    45   1 
    10     3    47   1 
    11     4     5   1 
    12     4    41   1 
    13     6     7   1 
    14     6    43   1 
    15     8    49   1 
    16     9    10   1 
    17     9    56   1 
    18    12    13   1 
    19    12    61   1 
    20    14    70   1 
    21    15    16   1 
    22    15    64   1 
    23    17    18   1 
    24    19    20   1 
    25    21    22   1 
    26    23    81   2 
    27    24    25   1 
    28    26    82   2 
    29    27    45   1 
    30    27    52   1 
    31    27    53   1 
    32    28    58   1 
    33    28    63   ar
    34    28    66   ar
    35    29    53   2 
    36    29    55   1 
    37    30    52   ar
    38    30    79   ar
    39    31    32   1 
    40    31    67   ar
    41    31    68   ar
    42    33    34   1 
    43    33    66   1 
    44    33    82   am
    45    35    69   ar
    46    35    79   ar
    47    36    37   1 
    48    36    81   am
    49    36    82   am
    50    38    39   1 
    51    38    40   1 
    52    38    69   1 
    53    41    42   1 
    54    41    43   1 
    55    41    45   1 
    56    43    44   1 
    57    43    47   1 
    58    45    46   1 
    59    47    48   1 
    60    47    49   1 
    61    49    50   1 
    62    49    51   1 
    63    52    55   ar
    64    53    54   1 
    65    55    69   ar
    66    56    57   1 
    67    56    58   1 
    68    56    61   1 
    69    58    59   1 
    70    58    60   1 
    71    61    62   1 
    72    61    64   1 
    73    63    67   ar
    74    63    73   ar
    75    64    65   1 
    76    64    70   1 
    77    66    68   ar
    78    67    75   ar
    79    68    81   1 
    80    70    71   1 
    81    70    72   1 
    82    73    74   1 
    83    73    77   ar
    84    75    76   1 
    85    75    78   ar
    86    77    78   ar
    87    77    83   1 
    88    78    87   1 
    89    79    80   1 
    90    83    84   1 
    91    83    85   1 
    92    83    86   1 
    93    87    88   1 
    94    87    89   1 
    95    87    90   1 
#MOLECULE END
 
#  inp11.mol2             10    of   10
#                 SCORE =  -247.4956
#              dG-SCORE =    -6.4008
#     LIGAND_EFFICIENCY =    -0.4670
# NUMBER_OF_HEAVY_ATOMS =         53
#                   ASA =   -77.1107
#                   ELE =     0.0000
#                   HYD =  -170.3849
#                   VDW =     0.0000
#                  RMSD =    30.7426
@<TRIPOS>MOLECULE
inp11.mol2                                                                      
   90   95    0    0    0
SMALL       
GASTEIGER      
 
@<TRIPOS>ATOM
    1 P        92.0177   75.9510   71.1004 P.3      1 UNK          0.0000
    2 P        90.5904   78.0874   72.4629 P.3      1 UNK          0.0000
    3 O        93.2859   75.3737   73.9963 O.3      1 UNK          0.0000
    4 O        92.0488   77.7230   76.0155 O.3      1 UNK          0.0000
    5 H        91.9684   77.9005   76.9701 H        1 UNK          0.0000
    6 O        94.0013   78.8705   74.4665 O.3      1 UNK          0.0000
    7 H        94.7930   79.2259   74.9123 H        1 UNK          0.0000
    8 O        93.6181   76.1564   71.0655 O.3      1 UNK          0.0000
    9 O        87.1043   81.3536   71.4350 O.3      1 UNK          0.0000
   10 H        86.6527   80.5021   71.2480 H        1 UNK          0.0000
   11 O        91.2323   77.3614   71.1703 O.3      1 UNK          0.0000
   12 O        87.4619   79.7340   68.8905 O.3      1 UNK          0.0000
   13 H        86.8130   79.4460   69.5620 H        1 UNK          0.0000
   14 O        90.8405   79.6851   72.4117 O.3      1 UNK          0.0000
   15 O        88.3665   78.9717   71.4245 O.3      1 UNK          0.0000
   16 H        87.5907   79.5555   71.5446 H        1 UNK          0.0000
   17 O        91.6063   75.2311   69.7229 O.3      1 UNK          0.0000
   18 H        91.9077   75.7924   68.9872 H        1 UNK          0.0000
   19 O        91.6134   74.9593   72.3012 O.3      1 UNK          0.0000
   20 H        90.6709   74.7368   72.2145 H        1 UNK          0.0000
   21 O        89.0153   77.7928   72.6050 O.3      1 UNK          0.0000
   22 H        88.8737   76.8309   72.5962 H        1 UNK          0.0000
   23 O        85.4385   87.8732   71.9690 O.2      1 UNK          0.0000
   24 O        91.3294   77.5171   73.7657 O.3      1 UNK          0.0000
   25 H        92.2825   77.7088   73.6917 H        1 UNK          0.0000
   26 O        86.1062   86.1120   67.8963 O.2      1 UNK          0.0000
   27 N        93.3778   74.4207   76.1652 N.ar     1 UNK          0.0000
   28 N        88.1762   83.9390   71.4888 N.ar     1 UNK          0.0000
   29 N        93.5152   72.5459   77.4719 N.ar     1 UNK          0.0000
   30 N        95.8162   74.7105   75.8625 N.ar     1 UNK          0.0000
   31 N        87.0220   85.9063   73.2144 N.ar     1 UNK          0.0000
   32 H        86.6306   86.6362   73.8071 H        1 UNK          0.0000
   33 N        87.0962   85.0719   69.6099 N.am     1 UNK          0.0000
   34 H        87.4800   84.4018   68.9576 H        1 UNK          0.0000
   35 N        97.1231   73.0129   76.9972 N.ar     1 UNK          0.0000
   36 N        85.7311   87.0441   69.9015 N.am     1 UNK          0.0000
   37 H        85.1556   87.7669   69.4884 H        1 UNK          0.0000
   38 N        96.0816   71.3087   78.2327 N.pl3    1 UNK          0.0000
   39 H        96.9832   71.0886   78.6294 H        1 UNK          0.0000
   40 H        95.2539   71.0190   78.7346 H        1 UNK          0.0000
   41 C        93.2281   76.9314   75.8176 C.3      1 UNK          0.0000
   42 H        93.8416   76.8991   76.7272 H        1 UNK          0.0000
   43 C        94.0493   77.4501   74.6226 C.3      1 UNK          0.0000
   44 H        95.0910   77.1259   74.7449 H        1 UNK          0.0000
   45 C        92.8085   75.5052   75.3569 C.3      1 UNK          0.0000
   46 H        91.7156   75.4057   75.3790 H        1 UNK          0.0000
   47 C        93.4367   76.6910   73.4421 C.3      1 UNK          0.0000
   48 H        92.4577   77.1192   73.1891 H        1 UNK          0.0000
   49 C        94.3552   76.6655   72.1953 C.3      1 UNK          0.0000
   50 H        94.6850   77.6894   71.9780 H        1 UNK          0.0000
   51 H        95.2455   76.0572   72.3984 H        1 UNK          0.0000
   52 C        94.7003   74.1123   76.3269 C.ar     1 UNK          0.0000
   53 C        92.6930   73.4302   76.8866 C.ar     1 UNK          0.0000
   54 H        91.6109   73.4053   76.9340 H        1 UNK          0.0000
   55 C        94.7415   72.9907   77.1103 C.ar     1 UNK          0.0000
   56 C        87.7572   81.7501   70.2258 C.3      1 UNK          0.0000
   57 H        87.0013   82.1328   69.5262 H        1 UNK          0.0000
   58 C        88.7475   82.9069   70.5528 C.3      1 UNK          0.0000
   59 H        89.0476   83.3878   69.6107 H        1 UNK          0.0000
   60 H        89.6778   82.4904   70.9580 H        1 UNK          0.0000
   61 C        88.4561   80.5313   69.5392 C.3      1 UNK          0.0000
   62 H        89.1581   80.9144   68.7850 H        1 UNK          0.0000
   63 C        88.3031   83.8388   72.9067 C.ar     1 UNK          0.0000
   64 C        89.2638   79.6536   70.5488 C.3      1 UNK          0.0000
   65 H        89.8346   78.9067   69.9820 H        1 UNK          0.0000
   66 C        87.3629   84.9739   70.9712 C.ar     1 UNK          0.0000
   67 C        87.7349   84.8330   73.7509 C.ar     1 UNK          0.0000
   68 C        86.7992   85.9396   71.8381 C.ar     1 UNK          0.0000
   69 C        95.9887   72.4330   77.4495 C.ar     1 UNK          0.0000
   70 C        90.2873   80.4974   71.3617 C.3      1 UNK          0.0000
   71 H        89.8024   81.3891   71.7771 H        1 UNK          0.0000
   72 H        91.0965   80.8319   70.7005 H        1 UNK          0.0000
   73 C        88.9979   82.7642   73.5168 C.ar     1 UNK          0.0000
   74 H        89.4362   81.9658   72.9275 H        1 UNK          0.0000
   75 C        87.8618   84.7476   75.1489 C.ar     1 UNK          0.0000
   76 H        87.4111   85.5051   75.7860 H        1 UNK          0.0000
   77 C        89.1238   82.6804   74.9164 C.ar     1 UNK          0.0000
   78 C        88.5531   83.6768   75.7377 C.ar     1 UNK          0.0000
   79 C        96.9784   74.1204   76.2279 C.ar     1 UNK          0.0000
   80 H        97.8946   74.5838   75.8660 H        1 UNK          0.0000
   81 C        85.9432   87.0228   71.2633 C.2      1 UNK          0.0000
   82 C        86.3010   86.0812   69.0909 C.2      1 UNK          0.0000
   83 C        89.8831   81.5015   75.5279 C.3      1 UNK          0.0000
   84 H        90.7387   81.8474   76.1216 H        1 UNK          0.0000
   85 H        89.2327   80.9121   76.1867 H        1 UNK          0.0000
   86 H        90.2653   80.8155   74.7618 H        1 UNK          0.0000
   87 C        88.6745   83.6109   77.2605 C.3      1 UNK          0.0000
   88 H        88.1710   84.4625   77.7365 H        1 UNK          0.0000
   89 H        89.7257   83.6228   77.5759 H        1 UNK          0.0000
   90 H        88.2222   82.6983   77.6691 H        1 UNK          0.0000
@<TRIPOS>BOND
     1     1     8   1 
     2     1    11   1 
     3     1    17   1 
     4     1    19   1 
     5     2    11   1 
     6     2    14   1 
     7     2    21   1 
     8     2    24   1 
     9     3    45   1 
    10     3    47   1 
    11     4     5   1 
    12     4    41   1 
    13     6     7   1 
    14     6    43   1 
    15     8    49   1 
    16     9    10   1 
    17     9    56   1 
    18    12    13   1 
    19    12    61   1 
    20    14    70   1 
    21    15    16   1 
    22    15    64   1 
    23    17    18   1 
    24    19    20   1 
    25    21    22   1 
    26    23    81   2 
    27    24    25   1 
    28    26    82   2 
    29    27    45   1 
    30    27    52   1 
    31    27    53   1 
    32    28    58   1 
    33    28    63   ar
    34    28    66   ar
    35    29    53   2 
    36    29    55   1 
    37    30    52   ar
    38    30    79   ar
    39    31    32   1 
    40    31    67   ar
    41    31    68   ar
    42    33    34   1 
    43    33    66   1 
    44    33    82   am
    45    35    69   ar
    46    35    79   ar
    47    36    37   1 
    48    36    81   am
    49    36    82   am
    50    38    39   1 
    51    38    40   1 
    52    38    69   1 
    53    41    42   1 
    54    41    43   1 
    55    41    45   1 
    56    43    44   1 
    57    43    47   1 
    58    45    46   1 
    59    47    48   1 
    60    47    49   1 
    61    49    50   1 
    62    49    51   1 
    63    52    55   ar
    64    53    54   1 
    65    55    69   ar
    66    56    57   1 
    67    56    58   1 
    68    56    61   1 
    69    58    59   1 
    70    58    60   1 
    71    61    62   1 
    72    61    64   1 
    73    63    67   ar
    74    63    73   ar
    75    64    65   1 
    76    64    70   1 
    77    66    68   ar
    78    67    75   ar
    79    68    81   1 
    80    70    71   1 
    81    70    72   1 
    82    73    74   1 
    83    73    77   ar
    84    75    76   1 
    85    75    78   ar
    86    77    78   ar
    87    77    83   1 
    88    78    87   1 
    89    79    80   1 
    90    83    84   1 
    91    83    85   1 
    92    83    86   1 
    93    87    88   1 
    94    87    89   1 
    95    87    90   1 
#MOLECULE END
 
