@<TRIPOS>COMMENT
   inp8.mol2               3    of   10
                  SCORE =  -515.9166
               dG-SCORE =   -12.2216
      LIGAND_EFFICIENCY =    -0.9734
  NUMBER_OF_HEAVY_ATOMS =         53
                    ASA =  -388.6247
                    ELE =     0.0000
                    HYD =  -114.8440
                    VDW =   -12.4479
                   RMSD =    33.4592
 MOLECULAR_WEIGHT = 789.59
@<TRIPOS>MOLECULE
inp8.mol2                                                                       
   90   95    0    0    0
SMALL       
GASTEIGER      
 
@<TRIPOS>ATOM
    1 P       111.0858  121.8831  137.2642 P.3      1 UNK          0.0000
    2 P       110.1123  120.7914  139.8228 P.3      1 UNK          0.0000
    3 O       110.3458  125.6166  136.4403 O.3      1 UNK          0.0000
    4 O       107.9370  127.2619  134.9931 O.3      1 UNK          0.0000
    5 H       107.8173  127.8372  134.2231 H        1 UNK          0.0000
    6 O       107.0748  124.7608  135.1605 O.3      1 UNK          0.0000
    7 H       106.6529  125.5961  135.4428 H        1 UNK          0.0000
    8 O       110.1352  122.8482  136.4139 O.3      1 UNK          0.0000
    9 O       110.3205  115.6741  141.2504 O.3      1 UNK          0.0000
   10 H       109.6468  115.4756  141.9371 H        1 UNK          0.0000
   11 O       110.1713  120.9442  138.2082 O.3      1 UNK          0.0000
   12 O       111.7588  115.4536  138.7185 O.3      1 UNK          0.0000
   13 H       112.2235  115.9852  138.0427 H        1 UNK          0.0000
   14 O       109.3131  119.5230  140.4146 O.3      1 UNK          0.0000
   15 O       111.5037  117.7458  140.1462 O.3      1 UNK          0.0000
   16 H       111.1973  117.3107  140.9596 H        1 UNK          0.0000
   17 O       111.8335  121.0539  136.1383 O.3      1 UNK          0.0000
   18 H       112.2220  121.7535  135.5826 H        1 UNK          0.0000
   19 O       112.2842  122.6419  138.0160 O.3      1 UNK          0.0000
   20 H       112.5053  123.4250  137.4856 H        1 UNK          0.0000
   21 O       111.5939  120.6610  140.4192 O.3      1 UNK          0.0000
   22 H       112.2379  121.1169  139.8530 H        1 UNK          0.0000
   23 O       106.0981  111.3014  144.1376 O.2      1 UNK          0.0000
   24 O       109.3644  122.0031  140.5001 O.3      1 UNK          0.0000
   25 H       109.6553  122.0271  141.4177 H        1 UNK          0.0000
   26 O       107.5278  110.6121  139.8955 O.2      1 UNK          0.0000
   27 N       111.4999  126.6399  134.6350 N.ar     1 UNK          0.0000
   28 N       107.7972  115.0043  141.5156 N.ar     1 UNK          0.0000
   29 N       113.3741  127.4198  133.5679 N.ar     1 UNK          0.0000
   30 N       111.6902  124.2430  133.8886 N.ar     1 UNK          0.0000
   31 N       106.7624  114.1295  144.0430 N.ar     1 UNK          0.0000
   32 H       106.3155  113.7943  144.9111 H        1 UNK          0.0000
   33 N       107.8145  112.6678  140.7201 N.am     1 UNK          0.0000
   34 H       108.2394  112.9546  139.8315 H        1 UNK          0.0000
   35 N       113.5019  123.8964  132.2476 N.ar     1 UNK          0.0000
   36 N       106.8240  110.8726  142.0415 N.am     1 UNK          0.0000
   37 H       106.5547  109.9094  142.0952 H        1 UNK          0.0000
   38 N       114.9498  125.6856  131.6374 N.pl3    1 UNK          0.0000
   39 H       115.4202  125.0629  130.9977 H        1 UNK          0.0000
   40 H       115.2531  126.6462  131.7291 H        1 UNK          0.0000
   41 C       108.9549  126.3479  134.6443 C.3      1 UNK          0.0000
   42 H       109.1069  126.3367  133.5596 H        1 UNK          0.0000
   43 C       108.4933  124.9990  135.2028 C.3      1 UNK          0.0000
   44 H       109.0318  124.1973  134.6878 H        1 UNK          0.0000
   45 C       110.2676  126.6515  135.4302 C.3      1 UNK          0.0000
   46 H       110.2126  127.6392  135.8947 H        1 UNK          0.0000
   47 C       109.0404  125.0270  136.6136 C.3      1 UNK          0.0000
   48 H       108.4135  125.6516  137.2600 H        1 UNK          0.0000
   49 C       109.0920  123.5625  137.0931 C.3      1 UNK          0.0000
   50 H       109.3381  123.5597  138.1541 H        1 UNK          0.0000
   51 H       108.1182  123.0750  136.9785 H        1 UNK          0.0000
   52 C       112.0588  125.5820  133.9688 C.ar     1 UNK          0.0000
   53 C       112.3751  127.7168  134.4130 C.ar     1 UNK          0.0000
   54 H       112.2190  128.6814  134.8815 H        1 UNK          0.0000
   55 C       113.1564  126.1110  133.2784 C.ar     1 UNK          0.0000
   56 C       109.7483  115.2178  140.0403 C.3      1 UNK          0.0000
   57 H       109.9228  114.1452  139.9088 H        1 UNK          0.0000
   58 C       108.2363  115.4663  140.1371 C.3      1 UNK          0.0000
   59 H       107.7164  114.9443  139.3259 H        1 UNK          0.0000
   60 H       107.9883  116.5202  140.0200 H        1 UNK          0.0000
   61 C       110.4290  115.9783  138.9018 C.3      1 UNK          0.0000
   62 H       109.8383  115.7669  137.9997 H        1 UNK          0.0000
   63 C       107.6373  115.9680  142.5802 C.ar     1 UNK          0.0000
   64 C       110.4617  117.5358  139.2055 C.3      1 UNK          0.0000
   65 H       110.7274  118.0417  138.2718 H        1 UNK          0.0000
   66 C       107.5891  113.6394  141.7264 C.ar     1 UNK          0.0000
   67 C       107.0781  115.4800  143.8748 C.ar     1 UNK          0.0000
   68 C       106.9991  113.1866  143.0102 C.ar     1 UNK          0.0000
   69 C       113.8829  125.2327  132.3814 C.ar     1 UNK          0.0000
   70 C       109.1387  118.2352  139.7611 C.3      1 UNK          0.0000
   71 H       108.6401  117.5664  140.4787 H        1 UNK          0.0000
   72 H       108.4213  118.3741  138.9440 H        1 UNK          0.0000
   73 C       107.8623  117.3684  142.4365 C.ar     1 UNK          0.0000
   74 H       108.2541  117.7862  141.5052 H        1 UNK          0.0000
   75 C       106.7690  116.4209  144.8835 C.ar     1 UNK          0.0000
   76 H       106.3266  116.0717  145.8253 H        1 UNK          0.0000
   77 C       107.5404  118.2983  143.4496 C.ar     1 UNK          0.0000
   78 C       106.9718  117.8052  144.6846 C.ar     1 UNK          0.0000
   79 C       112.4254  123.4594  133.0136 C.ar     1 UNK          0.0000
   80 H       112.0895  122.4408  132.8510 H        1 UNK          0.0000
   81 C       106.6168  111.7452  143.1221 C.2      1 UNK          0.0000
   82 C       107.4131  111.3502  140.8430 C.2      1 UNK          0.0000
   83 C       107.7750  119.7770  143.2231 C.3      1 UNK          0.0000
   84 H       108.4734  120.1475  143.9673 H        1 UNK          0.0000
   85 H       108.1951  119.9802  142.2269 H        1 UNK          0.0000
   86 H       106.8602  120.3733  143.3289 H        1 UNK          0.0000
   87 C       106.5731  118.7559  145.7816 C.3      1 UNK          0.0000
   88 H       105.8320  119.4969  145.4658 H        1 UNK          0.0000
   89 H       107.4642  119.2956  146.1185 H        1 UNK          0.0000
   90 H       106.1572  118.2078  146.6427 H        1 UNK          0.0000
@<TRIPOS>BOND
     1     1     8   1 
     2     1    11   1 
     3     1    17   1 
     4     1    19   1 
     5     2    11   1 
     6     2    14   1 
     7     2    21   1 
     8     2    24   1 
     9     3    45   1 
    10     3    47   1 
    11     4     5   1 
    12     4    41   1 
    13     6     7   1 
    14     6    43   1 
    15     8    49   1 
    16     9    10   1 
    17     9    56   1 
    18    12    13   1 
    19    12    61   1 
    20    14    70   1 
    21    15    16   1 
    22    15    64   1 
    23    17    18   1 
    24    19    20   1 
    25    21    22   1 
    26    23    81   2 
    27    24    25   1 
    28    26    82   2 
    29    27    45   1 
    30    27    52   1 
    31    27    53   1 
    32    28    58   1 
    33    28    63   ar
    34    28    66   ar
    35    29    53   2 
    36    29    55   1 
    37    30    52   ar
    38    30    79   ar
    39    31    32   1 
    40    31    67   ar
    41    31    68   ar
    42    33    34   1 
    43    33    66   1 
    44    33    82   am
    45    35    69   ar
    46    35    79   ar
    47    36    37   1 
    48    36    81   am
    49    36    82   am
    50    38    39   1 
    51    38    40   1 
    52    38    69   1 
    53    41    42   1 
    54    41    43   1 
    55    41    45   1 
    56    43    44   1 
    57    43    47   1 
    58    45    46   1 
    59    47    48   1 
    60    47    49   1 
    61    49    50   1 
    62    49    51   1 
    63    52    55   ar
    64    53    54   1 
    65    55    69   ar
    66    56    57   1 
    67    56    58   1 
    68    56    61   1 
    69    58    59   1 
    70    58    60   1 
    71    61    62   1 
    72    61    64   1 
    73    63    67   ar
    74    63    73   ar
    75    64    65   1 
    76    64    70   1 
    77    66    68   ar
    78    67    75   ar
    79    68    81   1 
    80    70    71   1 
    81    70    72   1 
    82    73    74   1 
    83    73    77   ar
    84    75    76   1 
    85    75    78   ar
    86    77    78   ar
    87    77    83   1 
    88    78    87   1 
    89    79    80   1 
    90    83    84   1 
    91    83    85   1 
    92    83    86   1 
    93    87    88   1 
    94    87    89   1 
    95    87    90   1 
 
