inp8.mol2
     Hgene          

 53 58  0  0  0  0               V2000
  111.0858  121.8831  137.2642 P   0  0  1  0  0
  110.1123  120.7914  139.8228 P   0  0  1  0  0
  110.3458  125.6166  136.4403 O   0  0  0  0  0
  107.9370  127.2619  134.9931 O   0  0  0  0  0
  107.0748  124.7608  135.1605 O   0  0  0  0  0
  110.1352  122.8482  136.4139 O   0  0  0  0  0
  110.3205  115.6741  141.2504 O   0  0  0  0  0
  110.1713  120.9442  138.2082 O   0  0  0  0  0
  111.7588  115.4536  138.7185 O   0  0  0  0  0
  109.3131  119.5230  140.4146 O   0  0  0  0  0
  111.5037  117.7458  140.1462 O   0  0  0  0  0
  111.8335  121.0539  136.1383 O   0  0  0  0  0
  112.2842  122.6419  138.0160 O   0  0  0  0  0
  111.5939  120.6610  140.4192 O   0  0  0  0  0
  106.0981  111.3014  144.1376 O   0  0  0  0  0
  109.3644  122.0031  140.5001 O   0  0  0  0  0
  107.5278  110.6121  139.8955 O   0  0  0  0  0
  111.4999  126.6399  134.6350 N   0  0  0  0  0
  107.7972  115.0043  141.5156 N   0  0  0  0  0
  113.3741  127.4198  133.5679 N   0  0  0  0  0
  111.6902  124.2430  133.8886 N   0  0  0  0  0
  106.7624  114.1295  144.0430 N   0  0  0  0  0
  107.8145  112.6678  140.7201 N   0  0  0  0  0
  113.5019  123.8964  132.2476 N   0  0  0  0  0
  106.8240  110.8726  142.0415 N   0  0  0  0  0
  114.9498  125.6856  131.6374 N   0  0  0  0  0
  108.9549  126.3479  134.6443 C   0  0  0  0  0
  108.4933  124.9990  135.2028 C   0  0  0  0  0
  110.2676  126.6515  135.4302 C   0  0  0  0  0
  109.0404  125.0270  136.6136 C   0  0  0  0  0
  109.0920  123.5625  137.0931 C   0  0  0  0  0
  112.0588  125.5820  133.9688 C   0  0  0  0  0
  112.3751  127.7168  134.4130 C   0  0  0  0  0
  113.1564  126.1110  133.2784 C   0  0  0  0  0
  109.7483  115.2178  140.0403 C   0  0  0  0  0
  108.2363  115.4663  140.1371 C   0  0  0  0  0
  110.4290  115.9783  138.9018 C   0  0  0  0  0
  107.6373  115.9680  142.5802 C   0  0  0  0  0
  110.4617  117.5358  139.2055 C   0  0  0  0  0
  107.5891  113.6394  141.7264 C   0  0  0  0  0
  107.0781  115.4800  143.8748 C   0  0  0  0  0
  106.9991  113.1866  143.0102 C   0  0  0  0  0
  113.8829  125.2327  132.3814 C   0  0  0  0  0
  109.1387  118.2352  139.7611 C   0  0  0  0  0
  107.8623  117.3684  142.4365 C   0  0  0  0  0
  106.7690  116.4209  144.8835 C   0  0  0  0  0
  107.5404  118.2983  143.4496 C   0  0  0  0  0
  106.9718  117.8052  144.6846 C   0  0  0  0  0
  112.4254  123.4594  133.0136 C   0  0  0  0  0
  106.6168  111.7452  143.1221 C   0  0  0  0  0
  107.4131  111.3502  140.8430 C   0  0  0  0  0
  107.7750  119.7770  143.2231 C   0  0  0  0  0
  106.5731  118.7559  145.7816 C   0  0  0  0  0
  1  6  1  0
  1  8  1  0
  1 12  1  0
  1 13  1  0
  2  8  1  0
  2 10  1  0
  2 14  1  0
  2 16  1  0
  3 29  1  0
  3 30  1  0
  4 27  1  0
  5 28  1  0
  6 31  1  0
  7 35  1  0
  9 37  1  0
 10 44  1  0
 11 39  1  0
 15 50  2  0
 17 51  2  0
 18 29  1  0
 18 32  1  0
 18 33  1  0
 19 36  1  0
 19 38  4  0
 19 40  4  0
 20 33  2  0
 20 34  1  0
 21 32  4  0
 21 49  4  0
 22 41  4  0
 22 42  4  0
 23 40  1  0
 23 51  1  0
 24 43  4  0
 24 49  4  0
 25 50  1  0
 25 51  1  0
 26 43  1  0
 27 28  1  0
 27 29  1  0
 28 30  1  0
 30 31  1  0
 32 34  4  0
 34 43  4  0
 35 36  1  0
 35 37  1  0
 37 39  1  0
 38 41  4  0
 38 45  4  0
 39 44  1  0
 40 42  4  0
 41 46  4  0
 42 50  1  0
 45 47  4  0
 46 48  4  0
 47 48  4  0
 47 52  1  0
 48 53  1  0
M  END
$$$$
