inp8.mol2
     Hgene          

 53 58  0  0  0  0               V2000
  112.3601  117.3260  138.8578 P   0  0  1  0  0
  114.1969  117.9327  136.5579 P   0  0  1  0  0
  108.9800  119.2022  140.0042 O   0  0  0  0  0
  107.4888  121.9168  141.1879 O   0  0  0  0  0
  110.2665  122.2292  141.0226 O   0  0  0  0  0
  111.6787  118.6092  139.6479 O   0  0  0  0  0
  110.8387  122.5458  135.7711 O   0  0  0  0  0
  113.7937  117.4048  138.0458 O   0  0  0  0  0
  112.8182  122.7120  138.8123 O   0  0  0  0  0
  113.0872  118.7962  135.7587 O   0  0  0  0  0
  114.4929  121.2075  137.0191 O   0  0  0  0  0
  112.6067  116.3006  140.0202 O   0  0  0  0  0
  111.2168  116.5161  138.1275 O   0  0  0  0  0
  115.6387  118.6622  136.4787 O   0  0  0  0  0
  112.5492  127.6352  131.5705 O   0  0  0  0  0
  114.2286  116.6716  135.5959 O   0  0  0  0  0
  115.8562  125.9657  134.1526 O   0  0  0  0  0
  107.7015  118.4970  141.7248 N   0  0  0  0  0
  111.4227  125.3649  135.7328 N   0  0  0  0  0
  106.4830  116.8228  142.5952 N   0  0  0  0  0
  109.8519  117.9992  142.9052 N   0  0  0  0  0
  110.4654  126.7826  133.4283 N   0  0  0  0  0
  113.7472  125.6737  134.9112 N   0  0  0  0  0
  109.3448  116.5385  144.8216 N   0  0  0  0  0
  114.2360  126.8296  132.8172 N   0  0  0  0  0
  107.3648  115.0939  144.6903 N   0  0  0  0  0
  108.3767  120.8619  141.5949 C   0  0  0  0  0
  109.7917  120.9277  141.0224 C   0  0  0  0  0
  107.9361  119.6142  140.8852 C   0  0  0  0  0
  109.7385  120.3408  139.6648 C   0  0  0  0  0
  111.1029  119.8625  139.1116 C   0  0  0  0  0
  108.5229  117.8480  142.5634 C   0  0  0  0  0
  106.4816  117.8920  141.8398 C   0  0  0  0  0
  107.6757  116.9235  143.1623 C   0  0  0  0  0
  111.9941  123.0328  136.4739 C   0  0  0  0  0
  111.9129  124.5352  136.8529 C   0  0  0  0  0
  112.2532  122.0835  137.6616 C   0  0  0  0  0
  110.0173  125.5415  135.5237 C   0  0  0  0  0
  113.1248  120.8781  137.2184 C   0  0  0  0  0
  112.3597  125.8897  134.7812 C   0  0  0  0  0
  109.5287  126.2720  134.3712 C   0  0  0  0  0
  111.8568  126.5989  133.6239 C   0  0  0  0  0
  108.1218  116.1801  144.2688 C   0  0  0  0  0
  112.3661  119.9771  136.1680 C   0  0  0  0  0
  109.0595  124.9058  136.3842 C   0  0  0  0  0
  108.1270  126.4031  134.1499 C   0  0  0  0  0
  107.6821  124.9548  136.1222 C   0  0  0  0  0
  107.1829  125.7645  135.0332 C   0  0  0  0  0
  110.2077  117.3492  144.0682 C   0  0  0  0  0
  112.8758  127.0795  132.5925 C   0  0  0  0  0
  114.6741  126.1529  133.9654 C   0  0  0  0  0
  106.8500  124.0554  137.0408 C   0  0  0  0  0
  105.6947  125.9634  134.7512 C   0  0  0  0  0
  1  6  1  0
  1  8  1  0
  1 12  1  0
  1 13  1  0
  2  8  1  0
  2 10  1  0
  2 14  1  0
  2 16  1  0
  3 29  1  0
  3 30  1  0
  4 27  1  0
  5 28  1  0
  6 31  1  0
  7 35  1  0
  9 37  1  0
 10 44  1  0
 11 39  1  0
 15 50  2  0
 17 51  2  0
 18 29  1  0
 18 32  1  0
 18 33  1  0
 19 36  1  0
 19 38  4  0
 19 40  4  0
 20 33  2  0
 20 34  1  0
 21 32  4  0
 21 49  4  0
 22 41  4  0
 22 42  4  0
 23 40  1  0
 23 51  1  0
 24 43  4  0
 24 49  4  0
 25 50  1  0
 25 51  1  0
 26 43  1  0
 27 28  1  0
 27 29  1  0
 28 30  1  0
 30 31  1  0
 32 34  4  0
 34 43  4  0
 35 36  1  0
 35 37  1  0
 37 39  1  0
 38 41  4  0
 38 45  4  0
 39 44  1  0
 40 42  4  0
 41 46  4  0
 42 50  1  0
 45 47  4  0
 46 48  4  0
 47 48  4  0
 47 52  1  0
 48 53  1  0
M  END
$$$$
