inp8.mol2
     Hgene          

 53 58  0  0  0  0               V2000
  107.6985  123.8870  140.0591 P   0  0  1  0  0
  105.9112  123.3844  142.2964 P   0  0  1  0  0
  109.9999  121.7546  137.6216 O   0  0  0  0  0
  112.9990  120.3542  137.6149 O   0  0  0  0  0
  112.4610  121.2930  140.2417 O   0  0  0  0  0
  109.1065  123.1191  139.9995 O   0  0  0  0  0
  107.7944  118.0162  141.0835 O   0  0  0  0  0
  107.1645  124.0632  141.5867 O   0  0  0  0  0
  109.8930  119.9171  143.2047 O   0  0  0  0  0
  105.7354  121.8903  141.6561 O   0  0  0  0  0
  107.2099  120.6495  143.7708 O   0  0  0  0  0
  108.0326  125.3706  139.5386 O   0  0  0  0  0
  106.7265  123.3469  138.9205 O   0  0  0  0  0
  105.9558  123.1731  143.8835 O   0  0  0  0  0
  105.9918  112.5229  144.6801 O   0  0  0  0  0
  104.6800  124.3991  142.0259 O   0  0  0  0  0
  106.6181  116.4061  146.9190 O   0  0  0  0  0
  111.3251  122.9368  135.9489 N   0  0  0  0  0
  108.6913  116.0345  142.7058 N   0  0  0  0  0
  111.5155  124.1980  134.0281 N   0  0  0  0  0
  111.7092  124.8243  137.5256 N   0  0  0  0  0
  107.5867  113.3894  142.4343 N   0  0  0  0  0
  107.5245  116.2968  144.8846 N   0  0  0  0  0
  111.6707  127.0410  136.4824 N   0  0  0  0  0
  106.2109  114.4606  145.8333 N   0  0  0  0  0
  112.0048  127.2606  134.1977 N   0  0  0  0  0
  112.4080  121.6552  137.7680 C   0  0  0  0  0
  111.7385  121.8430  139.1417 C   0  0  0  0  0
  111.2027  121.7508  136.8058 C   0  0  0  0  0
  110.3178  121.2761  138.9438 C   0  0  0  0  0
  109.3146  121.7006  140.0359 C   0  0  0  0  0
  111.5531  124.2364  136.3022 C   0  0  0  0  0
  111.3328  122.9750  134.5538 C   0  0  0  0  0
  111.6060  124.9852  135.1241 C   0  0  0  0  0
  108.3049  118.3785  142.3570 C   0  0  0  0  0
  109.3437  117.3585  142.8444 C   0  0  0  0  0
  108.8828  119.7733  142.2337 C   0  0  0  0  0
  108.9670  115.2485  141.5104 C   0  0  0  0  0
  107.7961  120.8403  142.4797 C   0  0  0  0  0
  107.8102  115.5584  143.6884 C   0  0  0  0  0
  108.3957  113.9047  141.4328 C   0  0  0  0  0
  107.2504  114.2032  143.5768 C   0  0  0  0  0
  111.7593  126.4293  135.2484 C   0  0  0  0  0
  106.7565  120.9191  141.3587 C   0  0  0  0  0
  109.7911  115.7298  140.4772 C   0  0  0  0  0
  108.7067  113.0936  140.2818 C   0  0  0  0  0
  110.1196  114.8946  139.3725 C   0  0  0  0  0
  109.5300  113.5957  139.2567 C   0  0  0  0  0
  111.5694  126.1977  137.5677 C   0  0  0  0  0
  106.4363  113.6560  144.6937 C   0  0  0  0  0
  106.7716  115.7540  145.9087 C   0  0  0  0  0
  111.0924  115.4228  138.3811 C   0  0  0  0  0
  109.7782  112.7388  138.0087 C   0  0  0  0  0
  1  6  1  0
  1  8  1  0
  1 12  1  0
  1 13  1  0
  2  8  1  0
  2 10  1  0
  2 14  1  0
  2 16  1  0
  3 29  1  0
  3 30  1  0
  4 27  1  0
  5 28  1  0
  6 31  1  0
  7 35  1  0
  9 37  1  0
 10 44  1  0
 11 39  1  0
 15 50  2  0
 17 51  2  0
 18 29  1  0
 18 32  1  0
 18 33  1  0
 19 36  1  0
 19 38  4  0
 19 40  4  0
 20 33  2  0
 20 34  1  0
 21 32  4  0
 21 49  4  0
 22 41  4  0
 22 42  4  0
 23 40  1  0
 23 51  1  0
 24 43  4  0
 24 49  4  0
 25 50  1  0
 25 51  1  0
 26 43  1  0
 27 28  1  0
 27 29  1  0
 28 30  1  0
 30 31  1  0
 32 34  4  0
 34 43  4  0
 35 36  1  0
 35 37  1  0
 37 39  1  0
 38 41  4  0
 38 45  4  0
 39 44  1  0
 40 42  4  0
 41 46  4  0
 42 50  1  0
 45 47  4  0
 46 48  4  0
 47 48  4  0
 47 52  1  0
 48 53  1  0
M  END
$$$$
