@<TRIPOS>COMMENT
   inp8.mol2               7    of   10
                  SCORE =  -465.2073
               dG-SCORE =   -11.3167
      LIGAND_EFFICIENCY =    -0.8777
  NUMBER_OF_HEAVY_ATOMS =         53
                    ASA =  -309.6906
                    ELE =     0.0000
                    HYD =  -142.8587
                    VDW =   -12.6580
                   RMSD =    35.0520
 MOLECULAR_WEIGHT = 789.59
@<TRIPOS>MOLECULE
inp8.mol2                                                                       
   90   95    0    0    0
SMALL       
GASTEIGER      
 
@<TRIPOS>ATOM
    1 P       111.5665  114.5327  134.6534 P.3      1 UNK          0.0000
    2 P       109.4455  113.0002  136.1381 P.3      1 UNK          0.0000
    3 O       114.6830  116.3988  136.0536 O.3      1 UNK          0.0000
    4 O       115.7560  118.7878  137.9626 O.3      1 UNK          0.0000
    5 H       116.3641  119.5427  137.9469 H        1 UNK          0.0000
    6 O       113.0616  118.9734  137.6611 O.3      1 UNK          0.0000
    7 H       113.5594  118.7861  138.4873 H        1 UNK          0.0000
    8 O       112.2138  115.7906  135.4821 O.3      1 UNK          0.0000
    9 O       108.5526  116.6240  140.6332 O.3      1 UNK          0.0000
   10 H       107.9328  117.3609  140.4497 H        1 UNK          0.0000
   11 O       110.0410  114.1472  135.1398 O.3      1 UNK          0.0000
   12 O       112.0833  116.2774  139.6447 O.3      1 UNK          0.0000
   13 H       112.6047  115.6152  139.1482 H        1 UNK          0.0000
   14 O       110.4379  112.6667  137.4035 O.3      1 UNK          0.0000
   15 O       108.8652  114.5950  138.8565 O.3      1 UNK          0.0000
   16 H       108.7739  114.4359  139.8112 H        1 UNK          0.0000
   17 O       111.5110  114.9781  133.0983 O.3      1 UNK          0.0000
   18 H       112.4275  115.1453  132.8050 H        1 UNK          0.0000
   19 O       112.6387  113.3402  134.6028 O.3      1 UNK          0.0000
   20 H       113.4883  113.7931  134.5044 H        1 UNK          0.0000
   21 O       107.9573  113.3226  136.6752 O.3      1 UNK          0.0000
   22 H       107.5116  113.9217  136.0598 H        1 UNK          0.0000
   23 O       106.8024  123.3997  139.6646 O.2      1 UNK          0.0000
   24 O       109.3239  111.7194  135.1950 O.3      1 UNK          0.0000
   25 H       110.1502  111.6457  134.6860 H        1 UNK          0.0000
   26 O       109.8210  121.6694  136.7538 O.2      1 UNK          0.0000
   27 N       116.2498  117.2932  134.6676 N.ar     1 UNK          0.0000
   28 N       109.3914  119.4486  140.9733 N.ar     1 UNK          0.0000
   29 N       117.6800  116.9719  132.9212 N.ar     1 UNK          0.0000
   30 N       114.1212  117.3123  133.3483 N.ar     1 UNK          0.0000
   31 N       107.3554  121.4024  141.6236 N.ar     1 UNK          0.0000
   32 H       106.6246  122.0929  141.8486 H        1 UNK          0.0000
   33 N       109.7535  120.7828  138.8197 N.am     1 UNK          0.0000
   34 H       110.5238  120.1850  138.5281 H        1 UNK          0.0000
   35 N       114.6352  118.0470  131.0386 N.ar     1 UNK          0.0000
   36 N       108.2801  122.6219  138.1515 N.am     1 UNK          0.0000
   37 H       107.9831  123.2789  137.4458 H        1 UNK          0.0000
   38 N       116.9378  117.8532  130.3309 N.pl3    1 UNK          0.0000
   39 H       116.7640  118.2464  129.4244 H        1 UNK          0.0000
   40 H       117.8424  117.4979  130.6068 H        1 UNK          0.0000
   41 C       115.2332  118.6358  136.6528 C.3      1 UNK          0.0000
   42 H       115.4407  119.5264  136.0717 H        1 UNK          0.0000
   43 C       113.7518  118.2302  136.6723 C.3      1 UNK          0.0000
   44 H       113.3094  118.3256  135.6928 H        1 UNK          0.0000
   45 C       115.7658  117.3391  136.0390 C.3      1 UNK          0.0000
   46 H       116.5526  116.9580  136.6925 H        1 UNK          0.0000
   47 C       113.8167  116.7598  137.0863 C.3      1 UNK          0.0000
   48 H       114.2370  116.6274  138.0890 H        1 UNK          0.0000
   49 C       112.5734  115.8873  136.8990 C.3      1 UNK          0.0000
   50 H       112.7709  114.8900  137.3103 H        1 UNK          0.0000
   51 H       111.7717  116.3354  137.5031 H        1 UNK          0.0000
   52 C       115.4965  117.2715  133.5588 C.ar     1 UNK          0.0000
   53 C       117.5786  117.0689  134.2279 C.ar     1 UNK          0.0000
   54 H       118.4040  116.9150  134.9116 H        1 UNK          0.0000
   55 C       116.4343  117.3185  132.5474 C.ar     1 UNK          0.0000
   56 C       109.7880  117.0034  140.0254 C.3      1 UNK          0.0000
   57 H       109.5693  117.3204  139.0011 H        1 UNK          0.0000
   58 C       110.3640  118.2730  140.7061 C.3      1 UNK          0.0000
   59 H       111.1878  118.6277  140.0893 H        1 UNK          0.0000
   60 H       110.8263  117.9633  141.6481 H        1 UNK          0.0000
   61 C       110.7472  115.7860  139.8069 C.3      1 UNK          0.0000
   62 H       110.6898  115.1619  140.6942 H        1 UNK          0.0000
   63 C       108.6433  119.3279  142.1595 C.ar     1 UNK          0.0000
   64 C       110.2411  114.8844  138.6264 C.3      1 UNK          0.0000
   65 H       110.2992  115.4536  137.6986 H        1 UNK          0.0000
   66 C       109.1470  120.5800  140.0755 C.ar     1 UNK          0.0000
   67 C       107.6027  120.3281  142.4947 C.ar     1 UNK          0.0000
   68 C       108.0706  121.5408  140.4301 C.ar     1 UNK          0.0000
   69 C       115.9771  117.7486  131.2732 C.ar     1 UNK          0.0000
   70 C       111.0760  113.5875  138.3480 C.3      1 UNK          0.0000
   71 H       111.2837  113.0701  139.2892 H        1 UNK          0.0000
   72 H       112.0503  113.8871  137.9356 H        1 UNK          0.0000
   73 C       108.8345  118.2337  143.0598 C.ar     1 UNK          0.0000
   74 H       109.5938  117.4689  142.8503 H        1 UNK          0.0000
   75 C       106.8615  120.1871  143.6745 C.ar     1 UNK          0.0000
   76 H       106.1143  120.9390  143.9501 H        1 UNK          0.0000
   77 C       108.0565  118.0847  144.2052 C.ar     1 UNK          0.0000
   78 C       107.0622  119.0762  144.5349 C.ar     1 UNK          0.0000
   79 C       113.7678  117.8280  132.1124 C.ar     1 UNK          0.0000
   80 H       112.7503  118.1545  132.0081 H        1 UNK          0.0000
   81 C       107.6883  122.6012  139.4178 C.2      1 UNK          0.0000
   82 C       109.3178  121.6924  137.8497 C.2      1 UNK          0.0000
   83 C       108.3061  116.8707  145.0645 C.3      1 UNK          0.0000
   84 H       107.4465  116.1958  145.0923 H        1 UNK          0.0000
   85 H       109.1628  116.3267  144.6621 H        1 UNK          0.0000
   86 H       108.5333  117.1449  146.0946 H        1 UNK          0.0000
   87 C       106.2505  118.9614  145.7922 C.3      1 UNK          0.0000
   88 H       106.9340  118.8977  146.6434 H        1 UNK          0.0000
   89 H       105.6361  118.0546  145.8025 H        1 UNK          0.0000
   90 H       105.6007  119.8308  145.9552 H        1 UNK          0.0000
@<TRIPOS>BOND
     1     1     8   1 
     2     1    11   1 
     3     1    17   1 
     4     1    19   1 
     5     2    11   1 
     6     2    14   1 
     7     2    21   1 
     8     2    24   1 
     9     3    45   1 
    10     3    47   1 
    11     4     5   1 
    12     4    41   1 
    13     6     7   1 
    14     6    43   1 
    15     8    49   1 
    16     9    10   1 
    17     9    56   1 
    18    12    13   1 
    19    12    61   1 
    20    14    70   1 
    21    15    16   1 
    22    15    64   1 
    23    17    18   1 
    24    19    20   1 
    25    21    22   1 
    26    23    81   2 
    27    24    25   1 
    28    26    82   2 
    29    27    45   1 
    30    27    52   1 
    31    27    53   1 
    32    28    58   1 
    33    28    63   ar
    34    28    66   ar
    35    29    53   2 
    36    29    55   1 
    37    30    52   ar
    38    30    79   ar
    39    31    32   1 
    40    31    67   ar
    41    31    68   ar
    42    33    34   1 
    43    33    66   1 
    44    33    82   am
    45    35    69   ar
    46    35    79   ar
    47    36    37   1 
    48    36    81   am
    49    36    82   am
    50    38    39   1 
    51    38    40   1 
    52    38    69   1 
    53    41    42   1 
    54    41    43   1 
    55    41    45   1 
    56    43    44   1 
    57    43    47   1 
    58    45    46   1 
    59    47    48   1 
    60    47    49   1 
    61    49    50   1 
    62    49    51   1 
    63    52    55   ar
    64    53    54   1 
    65    55    69   ar
    66    56    57   1 
    67    56    58   1 
    68    56    61   1 
    69    58    59   1 
    70    58    60   1 
    71    61    62   1 
    72    61    64   1 
    73    63    67   ar
    74    63    73   ar
    75    64    65   1 
    76    64    70   1 
    77    66    68   ar
    78    67    75   ar
    79    68    81   1 
    80    70    71   1 
    81    70    72   1 
    82    73    74   1 
    83    73    77   ar
    84    75    76   1 
    85    75    78   ar
    86    77    78   ar
    87    77    83   1 
    88    78    87   1 
    89    79    80   1 
    90    83    84   1 
    91    83    85   1 
    92    83    86   1 
    93    87    88   1 
    94    87    89   1 
    95    87    90   1 
 
