inp8.mol2
     Hgene          

 53 58  0  0  0  0               V2000
  107.7862  114.5338  141.3263 P   0  0  1  0  0
  106.8764  115.5335  144.0815 P   0  0  1  0  0
  111.0308  113.9451  139.9800 O   0  0  0  0  0
  113.8065  115.3423  138.7314 O   0  0  0  0  0
  111.8974  117.2624  139.1774 O   0  0  0  0  0
  108.6761  115.3869  140.3238 O   0  0  0  0  0
  111.0741  120.2817  141.6379 O   0  0  0  0  0
  107.0854  115.4865  142.4589 O   0  0  0  0  0
  111.3255  117.6488  142.3621 O   0  0  0  0  0
  108.2400  115.8719  144.8486 O   0  0  0  0  0
  108.1844  118.5554  144.1757 O   0  0  0  0  0
  106.7622  114.0346  140.2032 O   0  0  0  0  0
  108.4602  113.1890  141.8739 O   0  0  0  0  0
  105.9541  116.7487  144.5781 O   0  0  0  0  0
  106.6668  125.0160  140.4148 O   0  0  0  0  0
  106.2163  114.1789  144.6180 O   0  0  0  0  0
  105.9072  122.1778  143.7775 O   0  0  0  0  0
  111.3471  112.7615  138.0334 N   0  0  0  0  0
  108.7040  120.6589  140.2642 N   0  0  0  0  0
  111.1025  111.0067  136.5898 N   0  0  0  0  0
  109.0805  113.8160  137.5961 N   0  0  0  0  0
  107.9894  123.0352  138.7584 N   0  0  0  0  0
  107.1169  121.3789  142.0594 N   0  0  0  0  0
  107.9036  112.7551  135.7024 N   0  0  0  0  0
  106.2775  123.6777  142.1336 N   0  0  0  0  0
  108.8012  110.8121  134.6609 N   0  0  0  0  0
  112.4608  115.0247  138.3614 C   0  0  0  0  0
  111.4226  115.9529  139.0023 C   0  0  0  0  0
  112.0148  113.6668  138.9680 C   0  0  0  0  0
  111.1227  115.3288  140.3159 C   0  0  0  0  0
  109.8228  115.8896  140.9340 C   0  0  0  0  0
  110.1112  112.8922  137.4412 C   0  0  0  0  0
  111.7942  111.5063  137.6194 C   0  0  0  0  0
  110.0476  111.8521  136.5066 C   0  0  0  0  0
  109.9601  119.5882  142.1987 C   0  0  0  0  0
  108.9589  119.3777  141.0560 C   0  0  0  0  0
  110.3202  118.3788  143.0611 C   0  0  0  0  0
  109.3781  120.9836  138.9790 C   0  0  0  0  0
  108.9906  117.6940  143.3838 C   0  0  0  0  0
  107.7837  121.5769  140.7981 C   0  0  0  0  0
  108.9379  122.1589  138.2314 C   0  0  0  0  0
  107.4957  122.8288  140.1039 C   0  0  0  0  0
  108.9123  111.8012  135.6108 C   0  0  0  0  0
  109.3527  116.4540  144.1466 C   0  0  0  0  0
  110.4113  120.1965  138.4133 C   0  0  0  0  0
  109.6031  122.4848  136.9833 C   0  0  0  0  0
  111.0337  120.4832  137.1126 C   0  0  0  0  0
  110.6389  121.6891  136.4714 C   0  0  0  0  0
  108.0122  113.6942  136.7187 C   0  0  0  0  0
  106.7922  123.8980  140.8543 C   0  0  0  0  0
  106.4001  122.3914  142.6897 C   0  0  0  0  0
  112.1090  119.5418  136.5090 C   0  0  0  0  0
  111.4131  122.1652  135.2521 C   0  0  0  0  0
  1  6  1  0
  1  8  1  0
  1 12  1  0
  1 13  1  0
  2  8  1  0
  2 10  1  0
  2 14  1  0
  2 16  1  0
  3 29  1  0
  3 30  1  0
  4 27  1  0
  5 28  1  0
  6 31  1  0
  7 35  1  0
  9 37  1  0
 10 44  1  0
 11 39  1  0
 15 50  2  0
 17 51  2  0
 18 29  1  0
 18 32  1  0
 18 33  1  0
 19 36  1  0
 19 38  4  0
 19 40  4  0
 20 33  2  0
 20 34  1  0
 21 32  4  0
 21 49  4  0
 22 41  4  0
 22 42  4  0
 23 40  1  0
 23 51  1  0
 24 43  4  0
 24 49  4  0
 25 50  1  0
 25 51  1  0
 26 43  1  0
 27 28  1  0
 27 29  1  0
 28 30  1  0
 30 31  1  0
 32 34  4  0
 34 43  4  0
 35 36  1  0
 35 37  1  0
 37 39  1  0
 38 41  4  0
 38 45  4  0
 39 44  1  0
 40 42  4  0
 41 46  4  0
 42 50  1  0
 45 47  4  0
 46 48  4  0
 47 48  4  0
 47 52  1  0
 48 53  1  0
M  END
$$$$
