@<TRIPOS>COMMENT
   inp8.mol2               8    of   10
                  SCORE =  -451.6781
               dG-SCORE =   -10.0505
      LIGAND_EFFICIENCY =    -0.8522
  NUMBER_OF_HEAVY_ATOMS =         53
                    ASA =  -340.8847
                    ELE =     0.0000
                    HYD =   -92.0666
                    VDW =   -18.7268
                   RMSD =    32.0278
 MOLECULAR_WEIGHT = 789.59
@<TRIPOS>MOLECULE
inp8.mol2                                                                       
   90   95    0    0    0
SMALL       
GASTEIGER      
 
@<TRIPOS>ATOM
    1 P       107.7862  114.5338  141.3263 P.3      1 UNK          0.0000
    2 P       106.8764  115.5335  144.0815 P.3      1 UNK          0.0000
    3 O       111.0308  113.9451  139.9800 O.3      1 UNK          0.0000
    4 O       113.8065  115.3423  138.7314 O.3      1 UNK          0.0000
    5 H       114.0424  116.1612  138.2536 H        1 UNK          0.0000
    6 O       111.8974  117.2624  139.1774 O.3      1 UNK          0.0000
    7 H       112.8457  117.1399  139.3744 H        1 UNK          0.0000
    8 O       108.6761  115.3869  140.3238 O.3      1 UNK          0.0000
    9 O       111.0741  120.2817  141.6379 O.3      1 UNK          0.0000
   10 H       110.6820  121.0286  141.1232 H        1 UNK          0.0000
   11 O       107.0854  115.4865  142.4589 O.3      1 UNK          0.0000
   12 O       111.3255  117.6488  142.3621 O.3      1 UNK          0.0000
   13 H       111.0311  116.7485  142.2373 H        1 UNK          0.0000
   14 O       108.2400  115.8719  144.8486 O.3      1 UNK          0.0000
   15 O       108.1844  118.5554  144.1757 O.3      1 UNK          0.0000
   16 H       108.6683  118.6369  145.0161 H        1 UNK          0.0000
   17 O       106.7622  114.0346  140.2032 O.3      1 UNK          0.0000
   18 H       107.3079  113.7895  139.4238 H        1 UNK          0.0000
   19 O       108.4602  113.1890  141.8739 O.3      1 UNK          0.0000
   20 H       108.7180  112.6555  141.1053 H        1 UNK          0.0000
   21 O       105.9541  116.7487  144.5781 O.3      1 UNK          0.0000
   22 H       106.3777  117.5837  144.3043 H        1 UNK          0.0000
   23 O       106.6668  125.0160  140.4148 O.2      1 UNK          0.0000
   24 O       106.2163  114.1789  144.6180 O.3      1 UNK          0.0000
   25 H       106.6233  113.4249  144.1611 H        1 UNK          0.0000
   26 O       105.9072  122.1778  143.7775 O.2      1 UNK          0.0000
   27 N       111.3471  112.7615  138.0334 N.ar     1 UNK          0.0000
   28 N       108.7040  120.6589  140.2642 N.ar     1 UNK          0.0000
   29 N       111.1025  111.0067  136.5898 N.ar     1 UNK          0.0000
   30 N       109.0805  113.8160  137.5961 N.ar     1 UNK          0.0000
   31 N       107.9894  123.0352  138.7584 N.ar     1 UNK          0.0000
   32 H       107.6966  123.8724  138.2510 H        1 UNK          0.0000
   33 N       107.1169  121.3789  142.0594 N.am     1 UNK          0.0000
   34 H       107.2098  120.4901  142.5379 H        1 UNK          0.0000
   35 N       107.9036  112.7551  135.7024 N.ar     1 UNK          0.0000
   36 N       106.2775  123.6777  142.1336 N.am     1 UNK          0.0000
   37 H       105.8365  124.4275  142.6319 H        1 UNK          0.0000
   38 N       108.8012  110.8121  134.6609 N.pl3    1 UNK          0.0000
   39 H       108.0090  110.7961  134.0370 H        1 UNK          0.0000
   40 H       109.5182  110.1019  134.5976 H        1 UNK          0.0000
   41 C       112.4608  115.0247  138.3614 C.3      1 UNK          0.0000
   42 H       112.3826  115.0427  137.2744 H        1 UNK          0.0000
   43 C       111.4226  115.9529  139.0023 C.3      1 UNK          0.0000
   44 H       110.4788  115.9116  138.4567 H        1 UNK          0.0000
   45 C       112.0148  113.6668  138.9680 C.3      1 UNK          0.0000
   46 H       112.8713  113.1655  139.4175 H        1 UNK          0.0000
   47 C       111.1227  115.3288  140.3159 C.3      1 UNK          0.0000
   48 H       111.9862  115.5056  140.9581 H        1 UNK          0.0000
   49 C       109.8228  115.8896  140.9340 C.3      1 UNK          0.0000
   50 H       109.7477  115.5403  141.9689 H        1 UNK          0.0000
   51 H       109.8422  116.9825  140.9778 H        1 UNK          0.0000
   52 C       110.1112  112.8922  137.4412 C.ar     1 UNK          0.0000
   53 C       111.7942  111.5063  137.6194 C.ar     1 UNK          0.0000
   54 H       112.6446  111.0319  138.0774 H        1 UNK          0.0000
   55 C       110.0476  111.8521  136.5066 C.ar     1 UNK          0.0000
   56 C       109.9601  119.5882  142.1987 C.3      1 UNK          0.0000
   57 H       109.4372  120.2529  142.8922 H        1 UNK          0.0000
   58 C       108.9589  119.3777  141.0560 C.3      1 UNK          0.0000
   59 H       108.0154  119.0735  141.5393 H        1 UNK          0.0000
   60 H       109.2594  118.5188  140.4694 H        1 UNK          0.0000
   61 C       110.3202  118.3788  143.0611 C.3      1 UNK          0.0000
   62 H       110.7615  118.6605  144.0197 H        1 UNK          0.0000
   63 C       109.3781  120.9836  138.9790 C.ar     1 UNK          0.0000
   64 C       108.9906  117.6940  143.3838 C.3      1 UNK          0.0000
   65 H       108.4749  117.4075  142.4588 H        1 UNK          0.0000
   66 C       107.7837  121.5769  140.7981 C.ar     1 UNK          0.0000
   67 C       108.9379  122.1589  138.2314 C.ar     1 UNK          0.0000
   68 C       107.4957  122.8288  140.1039 C.ar     1 UNK          0.0000
   69 C       108.9123  111.8012  135.6108 C.ar     1 UNK          0.0000
   70 C       109.3527  116.4540  144.1466 C.3      1 UNK          0.0000
   71 H       110.1845  116.7077  144.8067 H        1 UNK          0.0000
   72 H       109.7181  115.7423  143.3936 H        1 UNK          0.0000
   73 C       110.4113  120.1965  138.4133 C.ar     1 UNK          0.0000
   74 H       110.7671  119.3145  138.9519 H        1 UNK          0.0000
   75 C       109.6031  122.4848  136.9833 C.ar     1 UNK          0.0000
   76 H       109.3413  123.4005  136.4626 H        1 UNK          0.0000
   77 C       111.0337  120.4832  137.1126 C.ar     1 UNK          0.0000
   78 C       110.6389  121.6891  136.4714 C.ar     1 UNK          0.0000
   79 C       108.0122  113.6942  136.7187 C.ar     1 UNK          0.0000
   80 H       107.1881  114.3885  136.8397 H        1 UNK          0.0000
   81 C       106.7922  123.8980  140.8543 C.2      1 UNK          0.0000
   82 C       106.4001  122.3914  142.6897 C.2      1 UNK          0.0000
   83 C       112.1090  119.5418  136.5090 C.3      1 UNK          0.0000
   84 H       112.0744  118.5499  136.9833 H        1 UNK          0.0000
   85 H       111.9876  119.3753  135.4348 H        1 UNK          0.0000
   86 H       113.1464  119.8935  136.6485 H        1 UNK          0.0000
   87 C       111.4131  122.1652  135.2521 C.3      1 UNK          0.0000
   88 H       111.2281  121.5355  134.3866 H        1 UNK          0.0000
   89 H       112.4791  122.1201  135.4683 H        1 UNK          0.0000
   90 H       111.1780  123.1963  134.9818 H        1 UNK          0.0000
@<TRIPOS>BOND
     1     1     8   1 
     2     1    11   1 
     3     1    17   1 
     4     1    19   1 
     5     2    11   1 
     6     2    14   1 
     7     2    21   1 
     8     2    24   1 
     9     3    45   1 
    10     3    47   1 
    11     4     5   1 
    12     4    41   1 
    13     6     7   1 
    14     6    43   1 
    15     8    49   1 
    16     9    10   1 
    17     9    56   1 
    18    12    13   1 
    19    12    61   1 
    20    14    70   1 
    21    15    16   1 
    22    15    64   1 
    23    17    18   1 
    24    19    20   1 
    25    21    22   1 
    26    23    81   2 
    27    24    25   1 
    28    26    82   2 
    29    27    45   1 
    30    27    52   1 
    31    27    53   1 
    32    28    58   1 
    33    28    63   ar
    34    28    66   ar
    35    29    53   2 
    36    29    55   1 
    37    30    52   ar
    38    30    79   ar
    39    31    32   1 
    40    31    67   ar
    41    31    68   ar
    42    33    34   1 
    43    33    66   1 
    44    33    82   am
    45    35    69   ar
    46    35    79   ar
    47    36    37   1 
    48    36    81   am
    49    36    82   am
    50    38    39   1 
    51    38    40   1 
    52    38    69   1 
    53    41    42   1 
    54    41    43   1 
    55    41    45   1 
    56    43    44   1 
    57    43    47   1 
    58    45    46   1 
    59    47    48   1 
    60    47    49   1 
    61    49    50   1 
    62    49    51   1 
    63    52    55   ar
    64    53    54   1 
    65    55    69   ar
    66    56    57   1 
    67    56    58   1 
    68    56    61   1 
    69    58    59   1 
    70    58    60   1 
    71    61    62   1 
    72    61    64   1 
    73    63    67   ar
    74    63    73   ar
    75    64    65   1 
    76    64    70   1 
    77    66    68   ar
    78    67    75   ar
    79    68    81   1 
    80    70    71   1 
    81    70    72   1 
    82    73    74   1 
    83    73    77   ar
    84    75    76   1 
    85    75    78   ar
    86    77    78   ar
    87    77    83   1 
    88    78    87   1 
    89    79    80   1 
    90    83    84   1 
    91    83    85   1 
    92    83    86   1 
    93    87    88   1 
    94    87    89   1 
    95    87    90   1 
 
