inp8.mol2
     Hgene          

 53 58  0  0  0  0               V2000
  113.5614  118.6029  134.9860 P   0  0  1  0  0
  114.7792  119.9552  137.2543 P   0  0  1  0  0
  115.2143  115.8356  133.0046 O   0  0  0  0  0
  117.4527  115.2088  130.6121 O   0  0  0  0  0
  117.5169  117.8970  131.1581 O   0  0  0  0  0
  114.5676  118.3800  133.7440 O   0  0  0  0  0
  111.1703  125.3731  137.6763 O   0  0  0  0  0
  113.9643  119.9004  135.8605 O   0  0  0  0  0
  113.4683  124.7725  136.3369 O   0  0  0  0  0
  115.8063  121.2052  137.2743 O   0  0  0  0  0
  113.4088  121.7891  138.5052 O   0  0  0  0  0
  112.1014  118.8664  134.3662 O   0  0  0  0  0
  113.4729  117.2636  135.8734 O   0  0  0  0  0
  113.7995  120.0423  138.5274 O   0  0  0  0  0
  105.3064  122.5702  139.4994 O   0  0  0  0  0
  115.6421  118.6098  137.3736 O   0  0  0  0  0
  109.1405  120.8177  141.0363 O   0  0  0  0  0
  114.0224  114.6074  131.3640 N   0  0  0  0  0
  109.4029  123.2889  137.0692 N   0  0  0  0  0
  112.2173  113.3064  130.8252 N   0  0  0  0  0
  112.9048  116.7812  130.9807 N   0  0  0  0  0
  106.5842  123.7282  137.2737 N   0  0  0  0  0
  109.2692  121.9973  139.1415 N   0  0  0  0  0
  110.5987  116.5515  130.2685 N   0  0  0  0  0
  107.1893  121.6644  140.3251 N   0  0  0  0  0
  109.6203  114.4335  130.0000 N   0  0  0  0  0
  116.1761  115.8320  130.8087 C   0  0  0  0  0
  116.3266  117.1911  131.5172 C   0  0  0  0  0
  115.3573  114.9952  131.8342 C   0  0  0  0  0
  116.2772  116.8028  132.9978 C   0  0  0  0  0
  115.9455  117.9968  133.9269 C   0  0  0  0  0
  112.9873  115.4360  131.0288 C   0  0  0  0  0
  113.4987  113.3126  131.2230 C   0  0  0  0  0
  111.9307  114.6247  130.7142 C   0  0  0  0  0
  111.7108  124.0628  137.8673 C   0  0  0  0  0
  110.8895  123.0570  137.0073 C   0  0  0  0  0
  113.2393  124.0323  137.5389 C   0  0  0  0  0
  108.7251  124.1518  136.1569 C   0  0  0  0  0
  113.7919  122.5792  137.3801 C   0  0  0  0  0
  108.6592  122.7536  138.1466 C   0  0  0  0  0
  107.3203  124.3491  136.2635 C   0  0  0  0  0
  107.2652  122.9799  138.2335 C   0  0  0  0  0
  110.7088  115.2053  130.3251 C   0  0  0  0  0
  115.3370  122.5625  137.1995 C   0  0  0  0  0
  109.4162  124.8277  135.1199 C   0  0  0  0  0
  106.6419  125.1909  135.3640 C   0  0  0  0  0
  108.7355  125.6699  134.2205 C   0  0  0  0  0
  107.3410  125.8533  134.3423 C   0  0  0  0  0
  111.7012  117.2691  130.5988 C   0  0  0  0  0
  106.5040  122.4019  139.3836 C   0  0  0  0  0
  108.5512  121.4676  140.2019 C   0  0  0  0  0
  109.5251  126.3777  133.1179 C   0  0  0  0  0
  106.5762  126.7622  133.3795 C   0  0  0  0  0
  1  6  1  0
  1  8  1  0
  1 12  1  0
  1 13  1  0
  2  8  1  0
  2 10  1  0
  2 14  1  0
  2 16  1  0
  3 29  1  0
  3 30  1  0
  4 27  1  0
  5 28  1  0
  6 31  1  0
  7 35  1  0
  9 37  1  0
 10 44  1  0
 11 39  1  0
 15 50  2  0
 17 51  2  0
 18 29  1  0
 18 32  1  0
 18 33  1  0
 19 36  1  0
 19 38  4  0
 19 40  4  0
 20 33  2  0
 20 34  1  0
 21 32  4  0
 21 49  4  0
 22 41  4  0
 22 42  4  0
 23 40  1  0
 23 51  1  0
 24 43  4  0
 24 49  4  0
 25 50  1  0
 25 51  1  0
 26 43  1  0
 27 28  1  0
 27 29  1  0
 28 30  1  0
 30 31  1  0
 32 34  4  0
 34 43  4  0
 35 36  1  0
 35 37  1  0
 37 39  1  0
 38 41  4  0
 38 45  4  0
 39 44  1  0
 40 42  4  0
 41 46  4  0
 42 50  1  0
 45 47  4  0
 46 48  4  0
 47 48  4  0
 47 52  1  0
 48 53  1  0
M  END
$$$$
