#  inp8.mol2               1    of   10
#                 SCORE =  -524.2576
#              dG-SCORE =   -12.4057
#     LIGAND_EFFICIENCY =    -0.9892
# NUMBER_OF_HEAVY_ATOMS =         53
#                   ASA =  -398.8416
#                   ELE =     0.0000
#                   HYD =  -112.8537
#                   VDW =   -12.5623
#                  RMSD =    33.1587
@<TRIPOS>MOLECULE
inp8.mol2                                                                       
   90   95    0    0    0
SMALL       
GASTEIGER      
 
@<TRIPOS>ATOM
    1 P       108.1015  124.3311  137.6070 P.3      1 UNK          0.0000
    2 P       106.0818  123.3920  139.4977 P.3      1 UNK          0.0000
    3 O       110.9223  122.2311  136.3789 O.3      1 UNK          0.0000
    4 O       113.8864  121.2181  137.0432 O.3      1 UNK          0.0000
    5 H       114.8043  121.3888  137.3536 H        1 UNK          0.0000
    6 O       112.9032  122.3774  139.5377 O.3      1 UNK          0.0000
    7 H       113.3927  121.5482  139.4560 H        1 UNK          0.0000
    8 O       109.5902  123.8455  137.8536 O.3      1 UNK          0.0000
    9 O       108.7176  118.6433  139.9357 O.3      1 UNK          0.0000
   10 H       108.4159  117.7503  140.2132 H        1 UNK          0.0000
   11 O       107.3443  124.2279  139.0018 O.3      1 UNK          0.0000
   12 O       110.2957  121.4417  141.7044 O.3      1 UNK          0.0000
   13 H       110.2053  122.3910  141.5079 H        1 UNK          0.0000
   14 O       106.2977  121.8619  139.1651 O.3      1 UNK          0.0000
   15 O       107.3159  121.3772  141.7929 O.3      1 UNK          0.0000
   16 H       107.1835  120.4131  141.8348 H        1 UNK          0.0000
   17 O       108.1675  125.8737  137.2098 O.3      1 UNK          0.0000
   18 H       108.8062  125.9705  136.4895 H        1 UNK          0.0000
   19 O       107.4550  123.5095  136.4014 O.3      1 UNK          0.0000
   20 H       108.0785  123.5898  135.6619 H        1 UNK          0.0000
   21 O       105.9545  123.6061  141.0994 O.3      1 UNK          0.0000
   22 H       105.7742  124.5240  141.3383 H        1 UNK          0.0000
   23 O       107.1193  113.2446  143.2748 O.2      1 UNK          0.0000
   24 O       104.7542  123.7353  138.6858 O.3      1 UNK          0.0000
   25 H       104.9045  123.5251  137.7441 H        1 UNK          0.0000
   26 O       106.8258  117.2492  145.3534 O.2      1 UNK          0.0000
   27 N       112.1901  123.7577  135.0052 N.ar     1 UNK          0.0000
   28 N       109.7965  117.0202  141.7016 N.ar     1 UNK          0.0000
   29 N       112.7624  124.9179  133.1089 N.ar     1 UNK          0.0000
   30 N       111.8323  125.8110  136.4697 N.ar     1 UNK          0.0000
   31 N       109.0562  114.2347  141.3486 N.ar     1 UNK          0.0000
   32 H       108.8557  113.2431  141.2783 H        1 UNK          0.0000
   33 N       108.1767  117.1728  143.5604 N.am     1 UNK          0.0000
   34 H       108.3859  118.1505  143.7076 H        1 UNK          0.0000
   35 N       112.1723  127.9235  135.2182 N.ar     1 UNK          0.0000
   36 N       106.9261  115.2223  144.3446 N.am     1 UNK          0.0000
   37 H       106.2887  114.8228  145.0339 H        1 UNK          0.0000
   38 N       112.8582  127.8772  132.9640 N.pl3    1 UNK          0.0000
   39 H       112.9293  128.8778  133.0011 H        1 UNK          0.0000
   40 H       113.0549  127.3715  132.1101 H        1 UNK          0.0000
   41 C       113.2233  122.4880  137.0322 C.3      1 UNK          0.0000
   42 H       113.9477  123.3014  136.9594 H        1 UNK          0.0000
   43 C       112.3603  122.7101  138.2423 C.3      1 UNK          0.0000
   44 H       112.1400  123.7816  138.2305 H        1 UNK          0.0000
   45 C       112.1871  122.5477  135.8636 C.3      1 UNK          0.0000
   46 H       112.4035  121.7245  135.1918 H        1 UNK          0.0000
   47 C       111.1097  121.9563  137.7604 C.3      1 UNK          0.0000
   48 H       111.1908  120.8851  137.9236 H        1 UNK          0.0000
   49 C       109.8536  122.5131  138.3597 C.3      1 UNK          0.0000
   50 H       109.0368  121.8561  138.0553 H        1 UNK          0.0000
   51 H       109.9347  122.4605  139.4579 H        1 UNK          0.0000
   52 C       112.1185  125.1010  135.3110 C.ar     1 UNK          0.0000
   53 C       112.4376  123.7284  133.6190 C.ar     1 UNK          0.0000
   54 H       112.4578  122.8110  133.0482 H        1 UNK          0.0000
   55 C       112.4647  125.7552  134.1150 C.ar     1 UNK          0.0000
   56 C       109.0793  119.3185  141.1351 C.3      1 UNK          0.0000
   57 H       108.1697  119.3791  141.7473 H        1 UNK          0.0000
   58 C       110.0946  118.4615  141.9135 C.3      1 UNK          0.0000
   59 H       110.0608  118.7302  142.9752 H        1 UNK          0.0000
   60 H       111.1137  118.6724  141.5825 H        1 UNK          0.0000
   61 C       109.4774  120.7793  140.7757 C.3      1 UNK          0.0000
   62 H       109.9852  120.8110  139.8042 H        1 UNK          0.0000
   63 C       110.4318  116.2213  140.7014 C.ar     1 UNK          0.0000
   64 C       108.1897  121.6100  140.6901 C.3      1 UNK          0.0000
   65 H       108.4239  122.6730  140.5974 H        1 UNK          0.0000
   66 C       108.7674  116.4320  142.5364 C.ar     1 UNK          0.0000
   67 C       110.0955  114.8147  140.5191 C.ar     1 UNK          0.0000
   68 C       108.4301  115.0363  142.3164 C.ar     1 UNK          0.0000
   69 C       112.4974  127.1958  134.0936 C.ar     1 UNK          0.0000
   70 C       107.5432  121.2092  139.3736 C.3      1 UNK          0.0000
   71 H       107.4104  120.1259  139.3664 H        1 UNK          0.0000
   72 H       108.2336  121.4626  138.5538 H        1 UNK          0.0000
   73 C       111.5151  116.7427  139.8710 C.ar     1 UNK          0.0000
   74 H       111.7790  117.7788  139.9567 H        1 UNK          0.0000
   75 C       110.8560  113.9853  139.6676 C.ar     1 UNK          0.0000
   76 H       110.6960  112.9124  139.6218 H        1 UNK          0.0000
   77 C       112.2219  115.9376  138.9502 C.ar     1 UNK          0.0000
   78 C       111.9085  114.5533  138.8616 C.ar     1 UNK          0.0000
   79 C       111.8380  127.2017  136.3527 C.ar     1 UNK          0.0000
   80 H       111.5612  127.7931  137.2064 H        1 UNK          0.0000
   81 C       107.4273  114.4144  143.3219 C.2      1 UNK          0.0000
   82 C       107.2730  116.5748  144.4703 C.2      1 UNK          0.0000
   83 C       113.3029  116.5405  138.0095 C.3      1 UNK          0.0000
   84 H       113.0814  116.2982  136.9669 H        1 UNK          0.0000
   85 H       113.3614  117.6257  138.0769 H        1 UNK          0.0000
   86 H       114.2975  116.1559  138.2145 H        1 UNK          0.0000
   87 C       112.6672  113.6705  137.9216 C.3      1 UNK          0.0000
   88 H       113.7402  113.8486  138.0453 H        1 UNK          0.0000
   89 H       112.4377  113.9095  136.8825 H        1 UNK          0.0000
   90 H       112.4458  112.6089  138.0744 H        1 UNK          0.0000
@<TRIPOS>BOND
     1     1     8   1 
     2     1    11   1 
     3     1    17   1 
     4     1    19   1 
     5     2    11   1 
     6     2    14   1 
     7     2    21   1 
     8     2    24   1 
     9     3    45   1 
    10     3    47   1 
    11     4     5   1 
    12     4    41   1 
    13     6     7   1 
    14     6    43   1 
    15     8    49   1 
    16     9    10   1 
    17     9    56   1 
    18    12    13   1 
    19    12    61   1 
    20    14    70   1 
    21    15    16   1 
    22    15    64   1 
    23    17    18   1 
    24    19    20   1 
    25    21    22   1 
    26    23    81   2 
    27    24    25   1 
    28    26    82   2 
    29    27    45   1 
    30    27    52   1 
    31    27    53   1 
    32    28    58   1 
    33    28    63   ar
    34    28    66   ar
    35    29    53   2 
    36    29    55   1 
    37    30    52   ar
    38    30    79   ar
    39    31    32   1 
    40    31    67   ar
    41    31    68   ar
    42    33    34   1 
    43    33    66   1 
    44    33    82   am
    45    35    69   ar
    46    35    79   ar
    47    36    37   1 
    48    36    81   am
    49    36    82   am
    50    38    39   1 
    51    38    40   1 
    52    38    69   1 
    53    41    42   1 
    54    41    43   1 
    55    41    45   1 
    56    43    44   1 
    57    43    47   1 
    58    45    46   1 
    59    47    48   1 
    60    47    49   1 
    61    49    50   1 
    62    49    51   1 
    63    52    55   ar
    64    53    54   1 
    65    55    69   ar
    66    56    57   1 
    67    56    58   1 
    68    56    61   1 
    69    58    59   1 
    70    58    60   1 
    71    61    62   1 
    72    61    64   1 
    73    63    67   ar
    74    63    73   ar
    75    64    65   1 
    76    64    70   1 
    77    66    68   ar
    78    67    75   ar
    79    68    81   1 
    80    70    71   1 
    81    70    72   1 
    82    73    74   1 
    83    73    77   ar
    84    75    76   1 
    85    75    78   ar
    86    77    78   ar
    87    77    83   1 
    88    78    87   1 
    89    79    80   1 
    90    83    84   1 
    91    83    85   1 
    92    83    86   1 
    93    87    88   1 
    94    87    89   1 
    95    87    90   1 
#MOLECULE END
 
#  inp8.mol2               2    of   10
#                 SCORE =  -475.8745
#              dG-SCORE =   -11.0905
#     LIGAND_EFFICIENCY =    -0.8979
# NUMBER_OF_HEAVY_ATOMS =         53
#                   ASA =  -356.8960
#                   ELE =     0.0000
#                   HYD =  -107.3348
#                   VDW =   -11.6438
#                  RMSD =    34.1674
@<TRIPOS>MOLECULE
inp8.mol2                                                                       
   90   95    0    0    0
SMALL       
GASTEIGER      
 
@<TRIPOS>ATOM
    1 P       111.2920  121.7023  137.5307 P.3      1 UNK          0.0000
    2 P       111.0128  121.5368  140.3945 P.3      1 UNK          0.0000
    3 O       112.9929  124.9263  136.1493 O.3      1 UNK          0.0000
    4 O       112.1546  128.0143  135.3662 O.3      1 UNK          0.0000
    5 H       112.4473  128.4934  134.5731 H        1 UNK          0.0000
    6 O       109.9192  126.7266  136.3783 O.3      1 UNK          0.0000
    7 H       110.4111  127.5174  136.6748 H        1 UNK          0.0000
    8 O       110.9544  123.1464  136.9470 O.3      1 UNK          0.0000
    9 O       107.9992  117.1556  139.8660 O.3      1 UNK          0.0000
   10 H       108.0572  116.1976  139.6567 H        1 UNK          0.0000
   11 O       110.5002  121.3597  138.8781 O.3      1 UNK          0.0000
   12 O       106.4398  119.4548  141.2650 O.3      1 UNK          0.0000
   13 H       106.5041  120.3792  141.5815 H        1 UNK          0.0000
   14 O       109.7178  121.8971  141.3105 O.3      1 UNK          0.0000
   15 O       109.9006  118.8935  142.0488 O.3      1 UNK          0.0000
   16 H       109.5698  118.5972  142.9135 H        1 UNK          0.0000
   17 O       110.9266  120.5997  136.4391 O.3      1 UNK          0.0000
   18 H       111.5201  120.7509  135.6929 H        1 UNK          0.0000
   19 O       112.8734  121.6994  137.7752 O.3      1 UNK          0.0000
   20 H       113.3163  121.8445  136.9425 H        1 UNK          0.0000
   21 O       111.7499  120.2218  140.9145 O.3      1 UNK          0.0000
   22 H       111.9269  119.6227  140.1790 H        1 UNK          0.0000
   23 O       107.9350  110.4715  140.2343 O.2      1 UNK          0.0000
   24 O       112.2565  122.5562  140.6128 O.3      1 UNK          0.0000
   25 H       113.0239  122.3095  140.0623 H        1 UNK          0.0000
   26 O       105.5254  112.7400  143.3144 O.2      1 UNK          0.0000
   27 N       113.4667  125.0397  133.8870 N.ar     1 UNK          0.0000
   28 N       109.0603  115.1158  141.2790 N.ar     1 UNK          0.0000
   29 N       114.4578  124.1457  132.0258 N.ar     1 UNK          0.0000
   30 N       111.4579  123.6111  133.9420 N.ar     1 UNK          0.0000
   31 N       109.8009  112.6600  139.8784 N.ar     1 UNK          0.0000
   32 H       110.0463  111.7834  139.4227 H        1 UNK          0.0000
   33 N       107.2807  113.8385  142.4321 N.am     1 UNK          0.0000
   34 H       107.0871  114.6405  143.0086 H        1 UNK          0.0000
   35 N       111.5233  121.8824  132.2314 N.ar     1 UNK          0.0000
   36 N       106.6981  111.5449  141.7874 N.am     1 UNK          0.0000
   37 H       106.0729  110.7625  141.8589 H        1 UNK          0.0000
   38 N       113.3700  121.7025  130.6999 N.pl3    1 UNK          0.0000
   39 H       112.9248  120.9081  130.2522 H        1 UNK          0.0000
   40 H       114.2527  122.0486  130.3481 H        1 UNK          0.0000
   41 C       111.8906  126.6697  134.9459 C.3      1 UNK          0.0000
   42 H       111.4714  126.6450  133.9343 H        1 UNK          0.0000
   43 C       110.9530  125.9131  135.8923 C.3      1 UNK          0.0000
   44 H       110.5257  125.0318  135.4018 H        1 UNK          0.0000
   45 C       113.2012  125.8474  135.0607 C.3      1 UNK          0.0000
   46 H       114.0720  126.4756  135.2460 H        1 UNK          0.0000
   47 C       111.9167  125.4147  136.9453 C.3      1 UNK          0.0000
   48 H       112.2341  126.2430  137.5749 H        1 UNK          0.0000
   49 C       111.3336  124.2673  137.7666 C.3      1 UNK          0.0000
   50 H       112.1086  123.9240  138.4684 H        1 UNK          0.0000
   51 H       110.4784  124.6471  138.3394 H        1 UNK          0.0000
   52 C       112.6603  124.0637  133.4450 C.ar     1 UNK          0.0000
   53 C       114.5896  124.9995  133.0513 C.ar     1 UNK          0.0000
   54 H       115.4578  125.6060  133.2483 H        1 UNK          0.0000
   55 C       113.3305  123.4948  132.3531 C.ar     1 UNK          0.0000
   56 C       107.6662  117.2560  141.2358 C.3      1 UNK          0.0000
   57 H       106.6844  116.7992  141.3562 H        1 UNK          0.0000
   58 C       108.6785  116.3782  142.0090 C.3      1 UNK          0.0000
   59 H       108.2321  116.1357  142.9855 H        1 UNK          0.0000
   60 H       109.5639  116.9739  142.2409 H        1 UNK          0.0000
   61 C       107.5698  118.7318  141.7552 C.3      1 UNK          0.0000
   62 H       107.4982  118.7028  142.8490 H        1 UNK          0.0000
   63 C       110.2157  115.0904  140.3510 C.ar     1 UNK          0.0000
   64 C       108.8243  119.5336  141.3706 C.3      1 UNK          0.0000
   65 H       108.9755  119.5031  140.2929 H        1 UNK          0.0000
   66 C       108.3452  113.9144  141.4807 C.ar     1 UNK          0.0000
   67 C       110.5447  113.8077  139.7181 C.ar     1 UNK          0.0000
   68 C       108.6560  112.6973  140.7407 C.ar     1 UNK          0.0000
   69 C       112.7514  122.3490  131.7614 C.ar     1 UNK          0.0000
   70 C       108.6267  121.0281  141.7004 C.3      1 UNK          0.0000
   71 H       108.4386  121.0774  142.7774 H        1 UNK          0.0000
   72 H       107.7077  121.3900  141.2240 H        1 UNK          0.0000
   73 C       111.0907  116.2023  140.1660 C.ar     1 UNK          0.0000
   74 H       110.9133  117.1786  140.6081 H        1 UNK          0.0000
   75 C       111.7334  113.6876  138.9212 C.ar     1 UNK          0.0000
   76 H       111.9886  112.7465  138.4511 H        1 UNK          0.0000
   77 C       112.3223  116.0115  139.4308 C.ar     1 UNK          0.0000
   78 C       112.5515  114.7902  138.7908 C.ar     1 UNK          0.0000
   79 C       110.9204  122.5551  133.2959 C.ar     1 UNK          0.0000
   80 H       109.9340  122.2339  133.6203 H        1 UNK          0.0000
   81 C       107.7789  111.4890  140.8818 C.2      1 UNK          0.0000
   82 C       106.4794  112.7008  142.5625 C.2      1 UNK          0.0000
   83 C       113.4211  117.0259  139.3563 C.3      1 UNK          0.0000
   84 H       113.6474  117.2515  138.2939 H        1 UNK          0.0000
   85 H       113.0965  117.9521  139.8442 H        1 UNK          0.0000
   86 H       114.3664  116.7237  139.8141 H        1 UNK          0.0000
   87 C       113.7651  114.6924  137.9160 C.3      1 UNK          0.0000
   88 H       114.6501  114.8863  138.5228 H        1 UNK          0.0000
   89 H       113.6732  115.4566  137.1339 H        1 UNK          0.0000
   90 H       113.8000  113.7111  137.4722 H        1 UNK          0.0000
@<TRIPOS>BOND
     1     1     8   1 
     2     1    11   1 
     3     1    17   1 
     4     1    19   1 
     5     2    11   1 
     6     2    14   1 
     7     2    21   1 
     8     2    24   1 
     9     3    45   1 
    10     3    47   1 
    11     4     5   1 
    12     4    41   1 
    13     6     7   1 
    14     6    43   1 
    15     8    49   1 
    16     9    10   1 
    17     9    56   1 
    18    12    13   1 
    19    12    61   1 
    20    14    70   1 
    21    15    16   1 
    22    15    64   1 
    23    17    18   1 
    24    19    20   1 
    25    21    22   1 
    26    23    81   2 
    27    24    25   1 
    28    26    82   2 
    29    27    45   1 
    30    27    52   1 
    31    27    53   1 
    32    28    58   1 
    33    28    63   ar
    34    28    66   ar
    35    29    53   2 
    36    29    55   1 
    37    30    52   ar
    38    30    79   ar
    39    31    32   1 
    40    31    67   ar
    41    31    68   ar
    42    33    34   1 
    43    33    66   1 
    44    33    82   am
    45    35    69   ar
    46    35    79   ar
    47    36    37   1 
    48    36    81   am
    49    36    82   am
    50    38    39   1 
    51    38    40   1 
    52    38    69   1 
    53    41    42   1 
    54    41    43   1 
    55    41    45   1 
    56    43    44   1 
    57    43    47   1 
    58    45    46   1 
    59    47    48   1 
    60    47    49   1 
    61    49    50   1 
    62    49    51   1 
    63    52    55   ar
    64    53    54   1 
    65    55    69   ar
    66    56    57   1 
    67    56    58   1 
    68    56    61   1 
    69    58    59   1 
    70    58    60   1 
    71    61    62   1 
    72    61    64   1 
    73    63    67   ar
    74    63    73   ar
    75    64    65   1 
    76    64    70   1 
    77    66    68   ar
    78    67    75   ar
    79    68    81   1 
    80    70    71   1 
    81    70    72   1 
    82    73    74   1 
    83    73    77   ar
    84    75    76   1 
    85    75    78   ar
    86    77    78   ar
    87    77    83   1 
    88    78    87   1 
    89    79    80   1 
    90    83    84   1 
    91    83    85   1 
    92    83    86   1 
    93    87    88   1 
    94    87    89   1 
    95    87    90   1 
#MOLECULE END
 
#  inp8.mol2               3    of   10
#                 SCORE =  -515.9166
#              dG-SCORE =   -12.2216
#     LIGAND_EFFICIENCY =    -0.9734
# NUMBER_OF_HEAVY_ATOMS =         53
#                   ASA =  -388.6247
#                   ELE =     0.0000
#                   HYD =  -114.8440
#                   VDW =   -12.4479
#                  RMSD =    33.4592
@<TRIPOS>MOLECULE
inp8.mol2                                                                       
   90   95    0    0    0
SMALL       
GASTEIGER      
 
@<TRIPOS>ATOM
    1 P       111.0858  121.8831  137.2642 P.3      1 UNK          0.0000
    2 P       110.1123  120.7914  139.8228 P.3      1 UNK          0.0000
    3 O       110.3458  125.6166  136.4403 O.3      1 UNK          0.0000
    4 O       107.9370  127.2619  134.9931 O.3      1 UNK          0.0000
    5 H       107.8173  127.8372  134.2231 H        1 UNK          0.0000
    6 O       107.0748  124.7608  135.1605 O.3      1 UNK          0.0000
    7 H       106.6529  125.5961  135.4428 H        1 UNK          0.0000
    8 O       110.1352  122.8482  136.4139 O.3      1 UNK          0.0000
    9 O       110.3205  115.6741  141.2504 O.3      1 UNK          0.0000
   10 H       109.6468  115.4756  141.9371 H        1 UNK          0.0000
   11 O       110.1713  120.9442  138.2082 O.3      1 UNK          0.0000
   12 O       111.7588  115.4536  138.7185 O.3      1 UNK          0.0000
   13 H       112.2235  115.9852  138.0427 H        1 UNK          0.0000
   14 O       109.3131  119.5230  140.4146 O.3      1 UNK          0.0000
   15 O       111.5037  117.7458  140.1462 O.3      1 UNK          0.0000
   16 H       111.1973  117.3107  140.9596 H        1 UNK          0.0000
   17 O       111.8335  121.0539  136.1383 O.3      1 UNK          0.0000
   18 H       112.2220  121.7535  135.5826 H        1 UNK          0.0000
   19 O       112.2842  122.6419  138.0160 O.3      1 UNK          0.0000
   20 H       112.5053  123.4250  137.4856 H        1 UNK          0.0000
   21 O       111.5939  120.6610  140.4192 O.3      1 UNK          0.0000
   22 H       112.2379  121.1169  139.8530 H        1 UNK          0.0000
   23 O       106.0981  111.3014  144.1376 O.2      1 UNK          0.0000
   24 O       109.3644  122.0031  140.5001 O.3      1 UNK          0.0000
   25 H       109.6553  122.0271  141.4177 H        1 UNK          0.0000
   26 O       107.5278  110.6121  139.8955 O.2      1 UNK          0.0000
   27 N       111.4999  126.6399  134.6350 N.ar     1 UNK          0.0000
   28 N       107.7972  115.0043  141.5156 N.ar     1 UNK          0.0000
   29 N       113.3741  127.4198  133.5679 N.ar     1 UNK          0.0000
   30 N       111.6902  124.2430  133.8886 N.ar     1 UNK          0.0000
   31 N       106.7624  114.1295  144.0430 N.ar     1 UNK          0.0000
   32 H       106.3155  113.7943  144.9111 H        1 UNK          0.0000
   33 N       107.8145  112.6678  140.7201 N.am     1 UNK          0.0000
   34 H       108.2394  112.9546  139.8315 H        1 UNK          0.0000
   35 N       113.5019  123.8964  132.2476 N.ar     1 UNK          0.0000
   36 N       106.8240  110.8726  142.0415 N.am     1 UNK          0.0000
   37 H       106.5547  109.9094  142.0952 H        1 UNK          0.0000
   38 N       114.9498  125.6856  131.6374 N.pl3    1 UNK          0.0000
   39 H       115.4202  125.0629  130.9977 H        1 UNK          0.0000
   40 H       115.2531  126.6462  131.7291 H        1 UNK          0.0000
   41 C       108.9549  126.3479  134.6443 C.3      1 UNK          0.0000
   42 H       109.1069  126.3367  133.5596 H        1 UNK          0.0000
   43 C       108.4933  124.9990  135.2028 C.3      1 UNK          0.0000
   44 H       109.0318  124.1973  134.6878 H        1 UNK          0.0000
   45 C       110.2676  126.6515  135.4302 C.3      1 UNK          0.0000
   46 H       110.2126  127.6392  135.8947 H        1 UNK          0.0000
   47 C       109.0404  125.0270  136.6136 C.3      1 UNK          0.0000
   48 H       108.4135  125.6516  137.2600 H        1 UNK          0.0000
   49 C       109.0920  123.5625  137.0931 C.3      1 UNK          0.0000
   50 H       109.3381  123.5597  138.1541 H        1 UNK          0.0000
   51 H       108.1182  123.0750  136.9785 H        1 UNK          0.0000
   52 C       112.0588  125.5820  133.9688 C.ar     1 UNK          0.0000
   53 C       112.3751  127.7168  134.4130 C.ar     1 UNK          0.0000
   54 H       112.2190  128.6814  134.8815 H        1 UNK          0.0000
   55 C       113.1564  126.1110  133.2784 C.ar     1 UNK          0.0000
   56 C       109.7483  115.2178  140.0403 C.3      1 UNK          0.0000
   57 H       109.9228  114.1452  139.9088 H        1 UNK          0.0000
   58 C       108.2363  115.4663  140.1371 C.3      1 UNK          0.0000
   59 H       107.7164  114.9443  139.3259 H        1 UNK          0.0000
   60 H       107.9883  116.5202  140.0200 H        1 UNK          0.0000
   61 C       110.4290  115.9783  138.9018 C.3      1 UNK          0.0000
   62 H       109.8383  115.7669  137.9997 H        1 UNK          0.0000
   63 C       107.6373  115.9680  142.5802 C.ar     1 UNK          0.0000
   64 C       110.4617  117.5358  139.2055 C.3      1 UNK          0.0000
   65 H       110.7274  118.0417  138.2718 H        1 UNK          0.0000
   66 C       107.5891  113.6394  141.7264 C.ar     1 UNK          0.0000
   67 C       107.0781  115.4800  143.8748 C.ar     1 UNK          0.0000
   68 C       106.9991  113.1866  143.0102 C.ar     1 UNK          0.0000
   69 C       113.8829  125.2327  132.3814 C.ar     1 UNK          0.0000
   70 C       109.1387  118.2352  139.7611 C.3      1 UNK          0.0000
   71 H       108.6401  117.5664  140.4787 H        1 UNK          0.0000
   72 H       108.4213  118.3741  138.9440 H        1 UNK          0.0000
   73 C       107.8623  117.3684  142.4365 C.ar     1 UNK          0.0000
   74 H       108.2541  117.7862  141.5052 H        1 UNK          0.0000
   75 C       106.7690  116.4209  144.8835 C.ar     1 UNK          0.0000
   76 H       106.3266  116.0717  145.8253 H        1 UNK          0.0000
   77 C       107.5404  118.2983  143.4496 C.ar     1 UNK          0.0000
   78 C       106.9718  117.8052  144.6846 C.ar     1 UNK          0.0000
   79 C       112.4254  123.4594  133.0136 C.ar     1 UNK          0.0000
   80 H       112.0895  122.4408  132.8510 H        1 UNK          0.0000
   81 C       106.6168  111.7452  143.1221 C.2      1 UNK          0.0000
   82 C       107.4131  111.3502  140.8430 C.2      1 UNK          0.0000
   83 C       107.7750  119.7770  143.2231 C.3      1 UNK          0.0000
   84 H       108.4734  120.1475  143.9673 H        1 UNK          0.0000
   85 H       108.1951  119.9802  142.2269 H        1 UNK          0.0000
   86 H       106.8602  120.3733  143.3289 H        1 UNK          0.0000
   87 C       106.5731  118.7559  145.7816 C.3      1 UNK          0.0000
   88 H       105.8320  119.4969  145.4658 H        1 UNK          0.0000
   89 H       107.4642  119.2956  146.1185 H        1 UNK          0.0000
   90 H       106.1572  118.2078  146.6427 H        1 UNK          0.0000
@<TRIPOS>BOND
     1     1     8   1 
     2     1    11   1 
     3     1    17   1 
     4     1    19   1 
     5     2    11   1 
     6     2    14   1 
     7     2    21   1 
     8     2    24   1 
     9     3    45   1 
    10     3    47   1 
    11     4     5   1 
    12     4    41   1 
    13     6     7   1 
    14     6    43   1 
    15     8    49   1 
    16     9    10   1 
    17     9    56   1 
    18    12    13   1 
    19    12    61   1 
    20    14    70   1 
    21    15    16   1 
    22    15    64   1 
    23    17    18   1 
    24    19    20   1 
    25    21    22   1 
    26    23    81   2 
    27    24    25   1 
    28    26    82   2 
    29    27    45   1 
    30    27    52   1 
    31    27    53   1 
    32    28    58   1 
    33    28    63   ar
    34    28    66   ar
    35    29    53   2 
    36    29    55   1 
    37    30    52   ar
    38    30    79   ar
    39    31    32   1 
    40    31    67   ar
    41    31    68   ar
    42    33    34   1 
    43    33    66   1 
    44    33    82   am
    45    35    69   ar
    46    35    79   ar
    47    36    37   1 
    48    36    81   am
    49    36    82   am
    50    38    39   1 
    51    38    40   1 
    52    38    69   1 
    53    41    42   1 
    54    41    43   1 
    55    41    45   1 
    56    43    44   1 
    57    43    47   1 
    58    45    46   1 
    59    47    48   1 
    60    47    49   1 
    61    49    50   1 
    62    49    51   1 
    63    52    55   ar
    64    53    54   1 
    65    55    69   ar
    66    56    57   1 
    67    56    58   1 
    68    56    61   1 
    69    58    59   1 
    70    58    60   1 
    71    61    62   1 
    72    61    64   1 
    73    63    67   ar
    74    63    73   ar
    75    64    65   1 
    76    64    70   1 
    77    66    68   ar
    78    67    75   ar
    79    68    81   1 
    80    70    71   1 
    81    70    72   1 
    82    73    74   1 
    83    73    77   ar
    84    75    76   1 
    85    75    78   ar
    86    77    78   ar
    87    77    83   1 
    88    78    87   1 
    89    79    80   1 
    90    83    84   1 
    91    83    85   1 
    92    83    86   1 
    93    87    88   1 
    94    87    89   1 
    95    87    90   1 
#MOLECULE END
 
#  inp8.mol2               4    of   10
#                 SCORE =  -508.7370
#              dG-SCORE =   -12.3208
#     LIGAND_EFFICIENCY =    -0.9599
# NUMBER_OF_HEAVY_ATOMS =         53
#                   ASA =  -357.2300
#                   ELE =     0.0000
#                   HYD =  -137.2171
#                   VDW =   -14.2898
#                  RMSD =    34.3349
@<TRIPOS>MOLECULE
inp8.mol2                                                                       
   90   95    0    0    0
SMALL       
GASTEIGER      
 
@<TRIPOS>ATOM
    1 P       112.3601  117.3260  138.8578 P.3      1 UNK          0.0000
    2 P       114.1969  117.9327  136.5579 P.3      1 UNK          0.0000
    3 O       108.9800  119.2022  140.0042 O.3      1 UNK          0.0000
    4 O       107.4888  121.9168  141.1879 O.3      1 UNK          0.0000
    5 H       106.6365  121.7545  141.6306 H        1 UNK          0.0000
    6 O       110.2665  122.2292  141.0226 O.3      1 UNK          0.0000
    7 H       109.4577  122.7483  140.8935 H        1 UNK          0.0000
    8 O       111.6787  118.6092  139.6479 O.3      1 UNK          0.0000
    9 O       110.8387  122.5458  135.7711 O.3      1 UNK          0.0000
   10 H       110.8039  123.0183  134.9112 H        1 UNK          0.0000
   11 O       113.7937  117.4048  138.0458 O.3      1 UNK          0.0000
   12 O       112.8182  122.7120  138.8123 O.3      1 UNK          0.0000
   13 H       112.9589  122.0740  139.5383 H        1 UNK          0.0000
   14 O       113.0872  118.7962  135.7587 O.3      1 UNK          0.0000
   15 O       114.4929  121.2075  137.0191 O.3      1 UNK          0.0000
   16 H       114.5074  121.9728  136.4184 H        1 UNK          0.0000
   17 O       112.6067  116.3006  140.0202 O.3      1 UNK          0.0000
   18 H       111.7176  116.0536  140.3257 H        1 UNK          0.0000
   19 O       111.2168  116.5161  138.1275 O.3      1 UNK          0.0000
   20 H       110.5974  116.2222  138.8170 H        1 UNK          0.0000
   21 O       115.6387  118.6622  136.4787 O.3      1 UNK          0.0000
   22 H       115.6500  119.4679  137.0169 H        1 UNK          0.0000
   23 O       112.5492  127.6352  131.5705 O.2      1 UNK          0.0000
   24 O       114.2286  116.6716  135.5959 O.3      1 UNK          0.0000
   25 H       114.5754  116.9704  134.7368 H        1 UNK          0.0000
   26 O       115.8562  125.9657  134.1526 O.2      1 UNK          0.0000
   27 N       107.7015  118.4970  141.7248 N.ar     1 UNK          0.0000
   28 N       111.4227  125.3649  135.7328 N.ar     1 UNK          0.0000
   29 N       106.4830  116.8228  142.5952 N.ar     1 UNK          0.0000
   30 N       109.8519  117.9992  142.9052 N.ar     1 UNK          0.0000
   31 N       110.4654  126.7826  133.4283 N.ar     1 UNK          0.0000
   32 H       110.1474  127.2572  132.6055 H        1 UNK          0.0000
   33 N       113.7472  125.6737  134.9112 N.am     1 UNK          0.0000
   34 H       114.1088  125.1461  135.6851 H        1 UNK          0.0000
   35 N       109.3448  116.5385  144.8216 N.ar     1 UNK          0.0000
   36 N       114.2360  126.8296  132.8172 N.am     1 UNK          0.0000
   37 H       114.9195  127.1279  132.1308 H        1 UNK          0.0000
   38 N       107.3648  115.0939  144.6903 N.pl3    1 UNK          0.0000
   39 H       107.6538  114.5155  145.4590 H        1 UNK          0.0000
   40 H       106.5309  114.8478  144.1781 H        1 UNK          0.0000
   41 C       108.3767  120.8619  141.5949 C.3      1 UNK          0.0000
   42 H       108.3688  120.6924  142.6778 H        1 UNK          0.0000
   43 C       109.7917  120.9277  141.0224 C.3      1 UNK          0.0000
   44 H       110.4118  120.2574  141.6260 H        1 UNK          0.0000
   45 C       107.9361  119.6142  140.8852 C.3      1 UNK          0.0000
   46 H       107.0187  119.8415  140.3381 H        1 UNK          0.0000
   47 C       109.7385  120.3408  139.6648 C.3      1 UNK          0.0000
   48 H       109.2204  121.0272  138.9835 H        1 UNK          0.0000
   49 C       111.1029  119.8625  139.1116 C.3      1 UNK          0.0000
   50 H       110.9692  119.7561  138.0284 H        1 UNK          0.0000
   51 H       111.8006  120.7003  139.2473 H        1 UNK          0.0000
   52 C       108.5229  117.8480  142.5634 C.ar     1 UNK          0.0000
   53 C       106.4816  117.8920  141.8398 C.ar     1 UNK          0.0000
   54 H       105.6283  118.2719  141.3094 H        1 UNK          0.0000
   55 C       107.6757  116.9235  143.1623 C.ar     1 UNK          0.0000
   56 C       111.9941  123.0328  136.4739 C.3      1 UNK          0.0000
   57 H       112.8503  122.9385  135.8062 H        1 UNK          0.0000
   58 C       111.9129  124.5352  136.8529 C.3      1 UNK          0.0000
   59 H       112.8982  124.8935  137.1411 H        1 UNK          0.0000
   60 H       111.2916  124.6708  137.7355 H        1 UNK          0.0000
   61 C       112.2532  122.0835  137.6616 C.3      1 UNK          0.0000
   62 H       111.2686  121.7042  137.9638 H        1 UNK          0.0000
   63 C       110.0173  125.5415  135.5237 C.ar     1 UNK          0.0000
   64 C       113.1248  120.8781  137.2184 C.3      1 UNK          0.0000
   65 H       113.1613  120.2378  138.0989 H        1 UNK          0.0000
   66 C       112.3597  125.8897  134.7812 C.ar     1 UNK          0.0000
   67 C       109.5287  126.2720  134.3712 C.ar     1 UNK          0.0000
   68 C       111.8568  126.5989  133.6239 C.ar     1 UNK          0.0000
   69 C       108.1218  116.1801  144.2688 C.ar     1 UNK          0.0000
   70 C       112.3661  119.9771  136.1680 C.3      1 UNK          0.0000
   71 H       112.0280  120.5618  135.3201 H        1 UNK          0.0000
   72 H       111.4379  119.6406  136.6406 H        1 UNK          0.0000
   73 C       109.0595  124.9058  136.3842 C.ar     1 UNK          0.0000
   74 H       109.3768  124.3127  137.2285 H        1 UNK          0.0000
   75 C       108.1270  126.4031  134.1499 C.ar     1 UNK          0.0000
   76 H       107.7551  126.9538  133.2930 H        1 UNK          0.0000
   77 C       107.6821  124.9548  136.1222 C.ar     1 UNK          0.0000
   78 C       107.1829  125.7645  135.0332 C.ar     1 UNK          0.0000
   79 C       110.2077  117.3492  144.0682 C.ar     1 UNK          0.0000
   80 H       111.2327  117.4860  144.4138 H        1 UNK          0.0000
   81 C       112.8758  127.0795  132.5925 C.2      1 UNK          0.0000
   82 C       114.6741  126.1529  133.9654 C.2      1 UNK          0.0000
   83 C       106.8500  124.0554  137.0408 C.3      1 UNK          0.0000
   84 H       106.1734  124.6433  137.6549 H        1 UNK          0.0000
   85 H       106.2572  123.3317  136.4755 H        1 UNK          0.0000
   86 H       107.4843  123.4923  137.7409 H        1 UNK          0.0000
   87 C       105.6947  125.9634  134.7512 C.3      1 UNK          0.0000
   88 H       105.2014  126.4787  135.5766 H        1 UNK          0.0000
   89 H       105.1786  125.0049  134.6115 H        1 UNK          0.0000
   90 H       105.5238  126.5757  133.8589 H        1 UNK          0.0000
@<TRIPOS>BOND
     1     1     8   1 
     2     1    11   1 
     3     1    17   1 
     4     1    19   1 
     5     2    11   1 
     6     2    14   1 
     7     2    21   1 
     8     2    24   1 
     9     3    45   1 
    10     3    47   1 
    11     4     5   1 
    12     4    41   1 
    13     6     7   1 
    14     6    43   1 
    15     8    49   1 
    16     9    10   1 
    17     9    56   1 
    18    12    13   1 
    19    12    61   1 
    20    14    70   1 
    21    15    16   1 
    22    15    64   1 
    23    17    18   1 
    24    19    20   1 
    25    21    22   1 
    26    23    81   2 
    27    24    25   1 
    28    26    82   2 
    29    27    45   1 
    30    27    52   1 
    31    27    53   1 
    32    28    58   1 
    33    28    63   ar
    34    28    66   ar
    35    29    53   2 
    36    29    55   1 
    37    30    52   ar
    38    30    79   ar
    39    31    32   1 
    40    31    67   ar
    41    31    68   ar
    42    33    34   1 
    43    33    66   1 
    44    33    82   am
    45    35    69   ar
    46    35    79   ar
    47    36    37   1 
    48    36    81   am
    49    36    82   am
    50    38    39   1 
    51    38    40   1 
    52    38    69   1 
    53    41    42   1 
    54    41    43   1 
    55    41    45   1 
    56    43    44   1 
    57    43    47   1 
    58    45    46   1 
    59    47    48   1 
    60    47    49   1 
    61    49    50   1 
    62    49    51   1 
    63    52    55   ar
    64    53    54   1 
    65    55    69   ar
    66    56    57   1 
    67    56    58   1 
    68    56    61   1 
    69    58    59   1 
    70    58    60   1 
    71    61    62   1 
    72    61    64   1 
    73    63    67   ar
    74    63    73   ar
    75    64    65   1 
    76    64    70   1 
    77    66    68   ar
    78    67    75   ar
    79    68    81   1 
    80    70    71   1 
    81    70    72   1 
    82    73    74   1 
    83    73    77   ar
    84    75    76   1 
    85    75    78   ar
    86    77    78   ar
    87    77    83   1 
    88    78    87   1 
    89    79    80   1 
    90    83    84   1 
    91    83    85   1 
    92    83    86   1 
    93    87    88   1 
    94    87    89   1 
    95    87    90   1 
#MOLECULE END
 
#  inp8.mol2               5    of   10
#                 SCORE =  -508.9649
#              dG-SCORE =   -11.7738
#     LIGAND_EFFICIENCY =    -0.9603
# NUMBER_OF_HEAVY_ATOMS =         53
#                   ASA =  -391.3518
#                   ELE =     0.0000
#                   HYD =  -102.1571
#                   VDW =   -15.4560
#                  RMSD =    32.6885
@<TRIPOS>MOLECULE
inp8.mol2                                                                       
   90   95    0    0    0
SMALL       
GASTEIGER      
 
@<TRIPOS>ATOM
    1 P       108.8899  123.2092  139.4118 P.3      1 UNK          0.0000
    2 P       107.1270  122.4631  141.5629 P.3      1 UNK          0.0000
    3 O       107.9213  125.5736  137.0865 O.3      1 UNK          0.0000
    4 O       106.1117  125.9858  134.3587 O.3      1 UNK          0.0000
    5 H       106.2639  126.6563  133.6704 H        1 UNK          0.0000
    6 O       106.2988  123.1900  135.1055 O.3      1 UNK          0.0000
    7 H       105.4402  123.6241  135.2530 H        1 UNK          0.0000
    8 O       108.1089  122.8208  138.0722 O.3      1 UNK          0.0000
    9 O       110.6755  117.0446  143.0050 O.3      1 UNK          0.0000
   10 H       111.0363  116.5227  142.2533 H        1 UNK          0.0000
   11 O       108.4622  122.2996  140.6800 O.3      1 UNK          0.0000
   12 O       108.3836  117.8705  144.3097 O.3      1 UNK          0.0000
   13 H       108.0912  118.3712  145.0963 H        1 UNK          0.0000
   14 O       106.4493  121.0258  141.8925 O.3      1 UNK          0.0000
   15 O       108.0947  120.7774  144.2528 O.3      1 UNK          0.0000
   16 H       107.6886  120.1761  144.8986 H        1 UNK          0.0000
   17 O       110.4504  122.9849  139.0693 O.3      1 UNK          0.0000
   18 H       110.7368  123.7126  138.4745 H        1 UNK          0.0000
   19 O       108.6196  124.7777  139.6937 O.3      1 UNK          0.0000
   20 H       108.8125  125.3018  138.8910 H        1 UNK          0.0000
   21 O       107.2223  123.3364  142.8989 O.3      1 UNK          0.0000
   22 H       107.5135  124.2401  142.6673 H        1 UNK          0.0000
   23 O       112.8181  114.0617  137.7349 O.2      1 UNK          0.0000
   24 O       106.1870  123.4999  140.8368 O.3      1 UNK          0.0000
   25 H       106.3193  124.3513  141.3018 H        1 UNK          0.0000
   26 O       112.5175  118.5035  137.6771 O.2      1 UNK          0.0000
   27 N       109.3019  126.9265  135.7295 N.ar     1 UNK          0.0000
   28 N       109.4447  116.2701  140.5792 N.ar     1 UNK          0.0000
   29 N       110.9738  128.5212  135.4880 N.ar     1 UNK          0.0000
   30 N       110.8053  124.9642  135.9722 N.ar     1 UNK          0.0000
   31 N       110.2827  113.8442  139.2091 N.ar     1 UNK          0.0000
   32 H       110.5140  113.0098  138.6681 H        1 UNK          0.0000
   33 N       111.0999  117.4470  139.1454 N.am     1 UNK          0.0000
   34 H       110.7404  118.3471  139.4681 H        1 UNK          0.0000
   35 N       113.1345  125.5100  135.3605 N.ar     1 UNK          0.0000
   36 N       112.7873  116.2821  137.7505 N.am     1 UNK          0.0000
   37 H       113.5559  116.3521  137.0903 H        1 UNK          0.0000
   38 N       113.6240  127.7196  134.5594 N.pl3    1 UNK          0.0000
   39 H       114.5513  127.4372  134.2979 H        1 UNK          0.0000
   40 H       113.2901  128.6562  134.3770 H        1 UNK          0.0000
   41 C       107.3960  125.4774  134.7728 C.3      1 UNK          0.0000
   42 H       108.1048  125.4469  133.9454 H        1 UNK          0.0000
   43 C       107.2978  124.1226  135.5135 C.3      1 UNK          0.0000
   44 H       108.2936  123.6656  135.5858 H        1 UNK          0.0000
   45 C       107.9484  126.3815  135.8900 C.3      1 UNK          0.0000
   46 H       107.2531  127.2175  135.9865 H        1 UNK          0.0000
   47 C       106.9114  124.5861  136.8808 C.3      1 UNK          0.0000
   48 H       105.9296  125.0542  136.7840 H        1 UNK          0.0000
   49 C       106.8300  123.4094  137.8822 C.3      1 UNK          0.0000
   50 H       106.4712  123.7421  138.8609 H        1 UNK          0.0000
   51 H       106.1092  122.6974  137.4919 H        1 UNK          0.0000
   52 C       110.4893  126.2881  135.7606 C.ar     1 UNK          0.0000
   53 C       109.6777  128.2705  135.6155 C.ar     1 UNK          0.0000
   54 H       108.9235  129.0376  135.6326 H        1 UNK          0.0000
   55 C       111.4421  127.2664  135.4563 C.ar     1 UNK          0.0000
   56 C       109.9148  118.0397  142.3868 C.3      1 UNK          0.0000
   57 H       110.6080  118.7253  141.9048 H        1 UNK          0.0000
   58 C       108.9554  117.5067  141.3114 C.3      1 UNK          0.0000
   59 H       108.7052  118.3344  140.6488 H        1 UNK          0.0000
   60 H       108.0025  117.2715  141.8046 H        1 UNK          0.0000
   61 C       109.2018  118.7556  143.5372 C.3      1 UNK          0.0000
   62 H       110.0301  119.0692  144.1726 H        1 UNK          0.0000
   63 C       108.9013  115.0256  140.9335 C.ar     1 UNK          0.0000
   64 C       108.4262  120.0264  143.0919 C.3      1 UNK          0.0000
   65 H       109.0731  120.5865  142.4048 H        1 UNK          0.0000
   66 C       110.5264  116.2865  139.5904 C.ar     1 UNK          0.0000
   67 C       109.2460  113.7977  140.2079 C.ar     1 UNK          0.0000
   68 C       110.9891  115.0201  139.0106 C.ar     1 UNK          0.0000
   69 C       112.7639  126.8312  135.1390 C.ar     1 UNK          0.0000
   70 C       107.1310  119.7994  142.3007 C.3      1 UNK          0.0000
   71 H       106.4740  119.1903  142.9281 H        1 UNK          0.0000
   72 H       107.4104  119.2145  141.4196 H        1 UNK          0.0000
   73 C       108.0239  114.8905  142.0828 C.ar     1 UNK          0.0000
   74 H       107.7934  115.7663  142.6854 H        1 UNK          0.0000
   75 C       108.6449  112.5826  140.5322 C.ar     1 UNK          0.0000
   76 H       108.8327  111.6888  139.9357 H        1 UNK          0.0000
   77 C       107.4956  113.6476  142.4720 C.ar     1 UNK          0.0000
   78 C       107.7966  112.4691  141.6926 C.ar     1 UNK          0.0000
   79 C       112.1438  124.6535  135.8439 C.ar     1 UNK          0.0000
   80 H       112.4362  123.6622  136.1683 H        1 UNK          0.0000
   81 C       112.2748  115.0632  138.1395 C.2      1 UNK          0.0000
   82 C       112.1659  117.4682  138.1767 C.2      1 UNK          0.0000
   83 C       106.6223  113.5716  143.7421 C.3      1 UNK          0.0000
   84 H       107.0316  112.8483  144.4528 H        1 UNK          0.0000
   85 H       106.5706  114.5454  144.2483 H        1 UNK          0.0000
   86 H       105.5972  113.2586  143.5200 H        1 UNK          0.0000
   87 C       107.2803  111.1037  142.0680 C.3      1 UNK          0.0000
   88 H       106.1880  111.1069  142.1887 H        1 UNK          0.0000
   89 H       107.7254  110.7704  143.0161 H        1 UNK          0.0000
   90 H       107.5267  110.3497  141.3086 H        1 UNK          0.0000
@<TRIPOS>BOND
     1     1     8   1 
     2     1    11   1 
     3     1    17   1 
     4     1    19   1 
     5     2    11   1 
     6     2    14   1 
     7     2    21   1 
     8     2    24   1 
     9     3    45   1 
    10     3    47   1 
    11     4     5   1 
    12     4    41   1 
    13     6     7   1 
    14     6    43   1 
    15     8    49   1 
    16     9    10   1 
    17     9    56   1 
    18    12    13   1 
    19    12    61   1 
    20    14    70   1 
    21    15    16   1 
    22    15    64   1 
    23    17    18   1 
    24    19    20   1 
    25    21    22   1 
    26    23    81   2 
    27    24    25   1 
    28    26    82   2 
    29    27    45   1 
    30    27    52   1 
    31    27    53   1 
    32    28    58   1 
    33    28    63   ar
    34    28    66   ar
    35    29    53   2 
    36    29    55   1 
    37    30    52   ar
    38    30    79   ar
    39    31    32   1 
    40    31    67   ar
    41    31    68   ar
    42    33    34   1 
    43    33    66   1 
    44    33    82   am
    45    35    69   ar
    46    35    79   ar
    47    36    37   1 
    48    36    81   am
    49    36    82   am
    50    38    39   1 
    51    38    40   1 
    52    38    69   1 
    53    41    42   1 
    54    41    43   1 
    55    41    45   1 
    56    43    44   1 
    57    43    47   1 
    58    45    46   1 
    59    47    48   1 
    60    47    49   1 
    61    49    50   1 
    62    49    51   1 
    63    52    55   ar
    64    53    54   1 
    65    55    69   ar
    66    56    57   1 
    67    56    58   1 
    68    56    61   1 
    69    58    59   1 
    70    58    60   1 
    71    61    62   1 
    72    61    64   1 
    73    63    67   ar
    74    63    73   ar
    75    64    65   1 
    76    64    70   1 
    77    66    68   ar
    78    67    75   ar
    79    68    81   1 
    80    70    71   1 
    81    70    72   1 
    82    73    74   1 
    83    73    77   ar
    84    75    76   1 
    85    75    78   ar
    86    77    78   ar
    87    77    83   1 
    88    78    87   1 
    89    79    80   1 
    90    83    84   1 
    91    83    85   1 
    92    83    86   1 
    93    87    88   1 
    94    87    89   1 
    95    87    90   1 
#MOLECULE END
 
#  inp8.mol2               6    of   10
#                 SCORE =  -507.2247
#              dG-SCORE =   -11.8831
#     LIGAND_EFFICIENCY =    -0.9570
# NUMBER_OF_HEAVY_ATOMS =         53
#                   ASA =  -383.9488
#                   ELE =     0.0000
#                   HYD =  -109.5328
#                   VDW =   -13.7430
#                  RMSD =    31.5387
@<TRIPOS>MOLECULE
inp8.mol2                                                                       
   90   95    0    0    0
SMALL       
GASTEIGER      
 
@<TRIPOS>ATOM
    1 P       107.6985  123.8870  140.0591 P.3      1 UNK          0.0000
    2 P       105.9112  123.3844  142.2964 P.3      1 UNK          0.0000
    3 O       109.9999  121.7546  137.6216 O.3      1 UNK          0.0000
    4 O       112.9990  120.3542  137.6149 O.3      1 UNK          0.0000
    5 H       113.6455  120.3873  136.8902 H        1 UNK          0.0000
    6 O       112.4610  121.2930  140.2417 O.3      1 UNK          0.0000
    7 H       112.5963  120.3530  140.0227 H        1 UNK          0.0000
    8 O       109.1065  123.1191  139.9995 O.3      1 UNK          0.0000
    9 O       107.7944  118.0162  141.0835 O.3      1 UNK          0.0000
   10 H       107.4885  117.0973  141.1815 H        1 UNK          0.0000
   11 O       107.1645  124.0632  141.5867 O.3      1 UNK          0.0000
   12 O       109.8930  119.9171  143.2047 O.3      1 UNK          0.0000
   13 H       110.2223  120.8280  143.1105 H        1 UNK          0.0000
   14 O       105.7354  121.8903  141.6561 O.3      1 UNK          0.0000
   15 O       107.2099  120.6495  143.7708 O.3      1 UNK          0.0000
   16 H       106.9717  119.7075  143.8266 H        1 UNK          0.0000
   17 O       108.0326  125.3706  139.5386 O.3      1 UNK          0.0000
   18 H       108.4196  125.3322  138.6422 H        1 UNK          0.0000
   19 O       106.7265  123.3469  138.9205 O.3      1 UNK          0.0000
   20 H       107.2113  123.4363  138.0783 H        1 UNK          0.0000
   21 O       105.9558  123.1731  143.8835 O.3      1 UNK          0.0000
   22 H       106.2206  123.9956  144.3126 H        1 UNK          0.0000
   23 O       105.9918  112.5229  144.6801 O.2      1 UNK          0.0000
   24 O       104.6800  124.3991  142.0259 O.3      1 UNK          0.0000
   25 H       104.7498  125.1572  142.6274 H        1 UNK          0.0000
   26 O       106.6181  116.4061  146.9190 O.2      1 UNK          0.0000
   27 N       111.3251  122.9368  135.9489 N.ar     1 UNK          0.0000
   28 N       108.6913  116.0345  142.7058 N.ar     1 UNK          0.0000
   29 N       111.5155  124.1980  134.0281 N.ar     1 UNK          0.0000
   30 N       111.7092  124.8243  137.5256 N.ar     1 UNK          0.0000
   31 N       107.5867  113.3894  142.4343 N.ar     1 UNK          0.0000
   32 H       107.2325  112.4312  142.4086 H        1 UNK          0.0000
   33 N       107.5245  116.2968  144.8846 N.am     1 UNK          0.0000
   34 H       107.9133  117.2263  145.0092 H        1 UNK          0.0000
   35 N       111.6707  127.0410  136.4824 N.ar     1 UNK          0.0000
   36 N       106.2109  114.4606  145.8333 N.am     1 UNK          0.0000
   37 H       105.6675  114.1086  146.5956 H        1 UNK          0.0000
   38 N       112.0048  127.2606  134.1977 N.pl3    1 UNK          0.0000
   39 H       112.1448  128.2446  134.3760 H        1 UNK          0.0000
   40 H       112.0544  126.8833  133.2649 H        1 UNK          0.0000
   41 C       112.4080  121.6552  137.7680 C.3      1 UNK          0.0000
   42 H       113.1675  122.4150  137.6055 H        1 UNK          0.0000
   43 C       111.7385  121.8430  139.1417 C.3      1 UNK          0.0000
   44 H       111.6726  122.9150  139.3138 H        1 UNK          0.0000
   45 C       111.2027  121.7508  136.8058 C.3      1 UNK          0.0000
   46 H       111.1805  120.8632  136.1660 H        1 UNK          0.0000
   47 C       110.3178  121.2761  138.9438 C.3      1 UNK          0.0000
   48 H       110.3548  120.1883  138.9590 H        1 UNK          0.0000
   49 C       109.3146  121.7006  140.0359 C.3      1 UNK          0.0000
   50 H       108.3518  121.2153  139.8896 H        1 UNK          0.0000
   51 H       109.6944  121.4073  141.0169 H        1 UNK          0.0000
   52 C       111.5531  124.2364  136.3022 C.ar     1 UNK          0.0000
   53 C       111.3328  122.9750  134.5538 C.ar     1 UNK          0.0000
   54 H       111.2252  122.0689  133.9886 H        1 UNK          0.0000
   55 C       111.6060  124.9852  135.1241 C.ar     1 UNK          0.0000
   56 C       108.3049  118.3785  142.3570 C.3      1 UNK          0.0000
   57 H       107.4943  118.4285  143.0946 H        1 UNK          0.0000
   58 C       109.3437  117.3585  142.8444 C.3      1 UNK          0.0000
   59 H       109.6083  117.5641  143.8974 H        1 UNK          0.0000
   60 H       110.2754  117.4480  142.2816 H        1 UNK          0.0000
   61 C       108.8828  119.7733  142.2337 C.3      1 UNK          0.0000
   62 H       109.3211  119.8937  141.2301 H        1 UNK          0.0000
   63 C       108.9670  115.2485  141.5104 C.ar     1 UNK          0.0000
   64 C       107.7961  120.8403  142.4797 C.3      1 UNK          0.0000
   65 H       108.2926  121.8125  142.4202 H        1 UNK          0.0000
   66 C       107.8102  115.5584  143.6884 C.ar     1 UNK          0.0000
   67 C       108.3957  113.9047  141.4328 C.ar     1 UNK          0.0000
   68 C       107.2504  114.2032  143.5768 C.ar     1 UNK          0.0000
   69 C       111.7593  126.4293  135.2484 C.ar     1 UNK          0.0000
   70 C       106.7565  120.9191  141.3587 C.3      1 UNK          0.0000
   71 H       106.3337  119.9272  141.2132 H        1 UNK          0.0000
   72 H       107.2850  121.1937  140.4376 H        1 UNK          0.0000
   73 C       109.7911  115.7298  140.4772 C.ar     1 UNK          0.0000
   74 H       110.2348  116.7262  140.4915 H        1 UNK          0.0000
   75 C       108.7067  113.0936  140.2818 C.ar     1 UNK          0.0000
   76 H       108.2980  112.0890  140.2157 H        1 UNK          0.0000
   77 C       110.1196  114.8946  139.3725 C.ar     1 UNK          0.0000
   78 C       109.5300  113.5957  139.2567 C.ar     1 UNK          0.0000
   79 C       111.5694  126.1977  137.5677 C.ar     1 UNK          0.0000
   80 H       111.3825  126.6584  138.5390 H        1 UNK          0.0000
   81 C       106.4363  113.6560  144.6937 C.2      1 UNK          0.0000
   82 C       106.7716  115.7540  145.9087 C.2      1 UNK          0.0000
   83 C       111.0924  115.4228  138.3811 C.3      1 UNK          0.0000
   84 H       110.5707  115.5064  137.4185 H        1 UNK          0.0000
   85 H       111.4411  116.4195  138.6856 H        1 UNK          0.0000
   86 H       111.9747  114.7905  138.2306 H        1 UNK          0.0000
   87 C       109.7782  112.7388  138.0087 C.3      1 UNK          0.0000
   88 H       110.8501  112.6054  137.8224 H        1 UNK          0.0000
   89 H       109.3332  113.2124  137.1260 H        1 UNK          0.0000
   90 H       109.3276  111.7449  138.1064 H        1 UNK          0.0000
@<TRIPOS>BOND
     1     1     8   1 
     2     1    11   1 
     3     1    17   1 
     4     1    19   1 
     5     2    11   1 
     6     2    14   1 
     7     2    21   1 
     8     2    24   1 
     9     3    45   1 
    10     3    47   1 
    11     4     5   1 
    12     4    41   1 
    13     6     7   1 
    14     6    43   1 
    15     8    49   1 
    16     9    10   1 
    17     9    56   1 
    18    12    13   1 
    19    12    61   1 
    20    14    70   1 
    21    15    16   1 
    22    15    64   1 
    23    17    18   1 
    24    19    20   1 
    25    21    22   1 
    26    23    81   2 
    27    24    25   1 
    28    26    82   2 
    29    27    45   1 
    30    27    52   1 
    31    27    53   1 
    32    28    58   1 
    33    28    63   ar
    34    28    66   ar
    35    29    53   2 
    36    29    55   1 
    37    30    52   ar
    38    30    79   ar
    39    31    32   1 
    40    31    67   ar
    41    31    68   ar
    42    33    34   1 
    43    33    66   1 
    44    33    82   am
    45    35    69   ar
    46    35    79   ar
    47    36    37   1 
    48    36    81   am
    49    36    82   am
    50    38    39   1 
    51    38    40   1 
    52    38    69   1 
    53    41    42   1 
    54    41    43   1 
    55    41    45   1 
    56    43    44   1 
    57    43    47   1 
    58    45    46   1 
    59    47    48   1 
    60    47    49   1 
    61    49    50   1 
    62    49    51   1 
    63    52    55   ar
    64    53    54   1 
    65    55    69   ar
    66    56    57   1 
    67    56    58   1 
    68    56    61   1 
    69    58    59   1 
    70    58    60   1 
    71    61    62   1 
    72    61    64   1 
    73    63    67   ar
    74    63    73   ar
    75    64    65   1 
    76    64    70   1 
    77    66    68   ar
    78    67    75   ar
    79    68    81   1 
    80    70    71   1 
    81    70    72   1 
    82    73    74   1 
    83    73    77   ar
    84    75    76   1 
    85    75    78   ar
    86    77    78   ar
    87    77    83   1 
    88    78    87   1 
    89    79    80   1 
    90    83    84   1 
    91    83    85   1 
    92    83    86   1 
    93    87    88   1 
    94    87    89   1 
    95    87    90   1 
#MOLECULE END
 
#  inp8.mol2               7    of   10
#                 SCORE =  -465.2073
#              dG-SCORE =   -11.3167
#     LIGAND_EFFICIENCY =    -0.8777
# NUMBER_OF_HEAVY_ATOMS =         53
#                   ASA =  -309.6906
#                   ELE =     0.0000
#                   HYD =  -142.8587
#                   VDW =   -12.6580
#                  RMSD =    35.0520
@<TRIPOS>MOLECULE
inp8.mol2                                                                       
   90   95    0    0    0
SMALL       
GASTEIGER      
 
@<TRIPOS>ATOM
    1 P       111.5665  114.5327  134.6534 P.3      1 UNK          0.0000
    2 P       109.4455  113.0002  136.1381 P.3      1 UNK          0.0000
    3 O       114.6830  116.3988  136.0536 O.3      1 UNK          0.0000
    4 O       115.7560  118.7878  137.9626 O.3      1 UNK          0.0000
    5 H       116.3641  119.5427  137.9469 H        1 UNK          0.0000
    6 O       113.0616  118.9734  137.6611 O.3      1 UNK          0.0000
    7 H       113.5594  118.7861  138.4873 H        1 UNK          0.0000
    8 O       112.2138  115.7906  135.4821 O.3      1 UNK          0.0000
    9 O       108.5526  116.6240  140.6332 O.3      1 UNK          0.0000
   10 H       107.9328  117.3609  140.4497 H        1 UNK          0.0000
   11 O       110.0410  114.1472  135.1398 O.3      1 UNK          0.0000
   12 O       112.0833  116.2774  139.6447 O.3      1 UNK          0.0000
   13 H       112.6047  115.6152  139.1482 H        1 UNK          0.0000
   14 O       110.4379  112.6667  137.4035 O.3      1 UNK          0.0000
   15 O       108.8652  114.5950  138.8565 O.3      1 UNK          0.0000
   16 H       108.7739  114.4359  139.8112 H        1 UNK          0.0000
   17 O       111.5110  114.9781  133.0983 O.3      1 UNK          0.0000
   18 H       112.4275  115.1453  132.8050 H        1 UNK          0.0000
   19 O       112.6387  113.3402  134.6028 O.3      1 UNK          0.0000
   20 H       113.4883  113.7931  134.5044 H        1 UNK          0.0000
   21 O       107.9573  113.3226  136.6752 O.3      1 UNK          0.0000
   22 H       107.5116  113.9217  136.0598 H        1 UNK          0.0000
   23 O       106.8024  123.3997  139.6646 O.2      1 UNK          0.0000
   24 O       109.3239  111.7194  135.1950 O.3      1 UNK          0.0000
   25 H       110.1502  111.6457  134.6860 H        1 UNK          0.0000
   26 O       109.8210  121.6694  136.7538 O.2      1 UNK          0.0000
   27 N       116.2498  117.2932  134.6676 N.ar     1 UNK          0.0000
   28 N       109.3914  119.4486  140.9733 N.ar     1 UNK          0.0000
   29 N       117.6800  116.9719  132.9212 N.ar     1 UNK          0.0000
   30 N       114.1212  117.3123  133.3483 N.ar     1 UNK          0.0000
   31 N       107.3554  121.4024  141.6236 N.ar     1 UNK          0.0000
   32 H       106.6246  122.0929  141.8486 H        1 UNK          0.0000
   33 N       109.7535  120.7828  138.8197 N.am     1 UNK          0.0000
   34 H       110.5238  120.1850  138.5281 H        1 UNK          0.0000
   35 N       114.6352  118.0470  131.0386 N.ar     1 UNK          0.0000
   36 N       108.2801  122.6219  138.1515 N.am     1 UNK          0.0000
   37 H       107.9831  123.2789  137.4458 H        1 UNK          0.0000
   38 N       116.9378  117.8532  130.3309 N.pl3    1 UNK          0.0000
   39 H       116.7640  118.2464  129.4244 H        1 UNK          0.0000
   40 H       117.8424  117.4979  130.6068 H        1 UNK          0.0000
   41 C       115.2332  118.6358  136.6528 C.3      1 UNK          0.0000
   42 H       115.4407  119.5264  136.0717 H        1 UNK          0.0000
   43 C       113.7518  118.2302  136.6723 C.3      1 UNK          0.0000
   44 H       113.3094  118.3256  135.6928 H        1 UNK          0.0000
   45 C       115.7658  117.3391  136.0390 C.3      1 UNK          0.0000
   46 H       116.5526  116.9580  136.6925 H        1 UNK          0.0000
   47 C       113.8167  116.7598  137.0863 C.3      1 UNK          0.0000
   48 H       114.2370  116.6274  138.0890 H        1 UNK          0.0000
   49 C       112.5734  115.8873  136.8990 C.3      1 UNK          0.0000
   50 H       112.7709  114.8900  137.3103 H        1 UNK          0.0000
   51 H       111.7717  116.3354  137.5031 H        1 UNK          0.0000
   52 C       115.4965  117.2715  133.5588 C.ar     1 UNK          0.0000
   53 C       117.5786  117.0689  134.2279 C.ar     1 UNK          0.0000
   54 H       118.4040  116.9150  134.9116 H        1 UNK          0.0000
   55 C       116.4343  117.3185  132.5474 C.ar     1 UNK          0.0000
   56 C       109.7880  117.0034  140.0254 C.3      1 UNK          0.0000
   57 H       109.5693  117.3204  139.0011 H        1 UNK          0.0000
   58 C       110.3640  118.2730  140.7061 C.3      1 UNK          0.0000
   59 H       111.1878  118.6277  140.0893 H        1 UNK          0.0000
   60 H       110.8263  117.9633  141.6481 H        1 UNK          0.0000
   61 C       110.7472  115.7860  139.8069 C.3      1 UNK          0.0000
   62 H       110.6898  115.1619  140.6942 H        1 UNK          0.0000
   63 C       108.6433  119.3279  142.1595 C.ar     1 UNK          0.0000
   64 C       110.2411  114.8844  138.6264 C.3      1 UNK          0.0000
   65 H       110.2992  115.4536  137.6986 H        1 UNK          0.0000
   66 C       109.1470  120.5800  140.0755 C.ar     1 UNK          0.0000
   67 C       107.6027  120.3281  142.4947 C.ar     1 UNK          0.0000
   68 C       108.0706  121.5408  140.4301 C.ar     1 UNK          0.0000
   69 C       115.9771  117.7486  131.2732 C.ar     1 UNK          0.0000
   70 C       111.0760  113.5875  138.3480 C.3      1 UNK          0.0000
   71 H       111.2837  113.0701  139.2892 H        1 UNK          0.0000
   72 H       112.0503  113.8871  137.9356 H        1 UNK          0.0000
   73 C       108.8345  118.2337  143.0598 C.ar     1 UNK          0.0000
   74 H       109.5938  117.4689  142.8503 H        1 UNK          0.0000
   75 C       106.8615  120.1871  143.6745 C.ar     1 UNK          0.0000
   76 H       106.1143  120.9390  143.9501 H        1 UNK          0.0000
   77 C       108.0565  118.0847  144.2052 C.ar     1 UNK          0.0000
   78 C       107.0622  119.0762  144.5349 C.ar     1 UNK          0.0000
   79 C       113.7678  117.8280  132.1124 C.ar     1 UNK          0.0000
   80 H       112.7503  118.1545  132.0081 H        1 UNK          0.0000
   81 C       107.6883  122.6012  139.4178 C.2      1 UNK          0.0000
   82 C       109.3178  121.6924  137.8497 C.2      1 UNK          0.0000
   83 C       108.3061  116.8707  145.0645 C.3      1 UNK          0.0000
   84 H       107.4465  116.1958  145.0923 H        1 UNK          0.0000
   85 H       109.1628  116.3267  144.6621 H        1 UNK          0.0000
   86 H       108.5333  117.1449  146.0946 H        1 UNK          0.0000
   87 C       106.2505  118.9614  145.7922 C.3      1 UNK          0.0000
   88 H       106.9340  118.8977  146.6434 H        1 UNK          0.0000
   89 H       105.6361  118.0546  145.8025 H        1 UNK          0.0000
   90 H       105.6007  119.8308  145.9552 H        1 UNK          0.0000
@<TRIPOS>BOND
     1     1     8   1 
     2     1    11   1 
     3     1    17   1 
     4     1    19   1 
     5     2    11   1 
     6     2    14   1 
     7     2    21   1 
     8     2    24   1 
     9     3    45   1 
    10     3    47   1 
    11     4     5   1 
    12     4    41   1 
    13     6     7   1 
    14     6    43   1 
    15     8    49   1 
    16     9    10   1 
    17     9    56   1 
    18    12    13   1 
    19    12    61   1 
    20    14    70   1 
    21    15    16   1 
    22    15    64   1 
    23    17    18   1 
    24    19    20   1 
    25    21    22   1 
    26    23    81   2 
    27    24    25   1 
    28    26    82   2 
    29    27    45   1 
    30    27    52   1 
    31    27    53   1 
    32    28    58   1 
    33    28    63   ar
    34    28    66   ar
    35    29    53   2 
    36    29    55   1 
    37    30    52   ar
    38    30    79   ar
    39    31    32   1 
    40    31    67   ar
    41    31    68   ar
    42    33    34   1 
    43    33    66   1 
    44    33    82   am
    45    35    69   ar
    46    35    79   ar
    47    36    37   1 
    48    36    81   am
    49    36    82   am
    50    38    39   1 
    51    38    40   1 
    52    38    69   1 
    53    41    42   1 
    54    41    43   1 
    55    41    45   1 
    56    43    44   1 
    57    43    47   1 
    58    45    46   1 
    59    47    48   1 
    60    47    49   1 
    61    49    50   1 
    62    49    51   1 
    63    52    55   ar
    64    53    54   1 
    65    55    69   ar
    66    56    57   1 
    67    56    58   1 
    68    56    61   1 
    69    58    59   1 
    70    58    60   1 
    71    61    62   1 
    72    61    64   1 
    73    63    67   ar
    74    63    73   ar
    75    64    65   1 
    76    64    70   1 
    77    66    68   ar
    78    67    75   ar
    79    68    81   1 
    80    70    71   1 
    81    70    72   1 
    82    73    74   1 
    83    73    77   ar
    84    75    76   1 
    85    75    78   ar
    86    77    78   ar
    87    77    83   1 
    88    78    87   1 
    89    79    80   1 
    90    83    84   1 
    91    83    85   1 
    92    83    86   1 
    93    87    88   1 
    94    87    89   1 
    95    87    90   1 
#MOLECULE END
 
#  inp8.mol2               8    of   10
#                 SCORE =  -451.6781
#              dG-SCORE =   -10.0505
#     LIGAND_EFFICIENCY =    -0.8522
# NUMBER_OF_HEAVY_ATOMS =         53
#                   ASA =  -340.8847
#                   ELE =     0.0000
#                   HYD =   -92.0666
#                   VDW =   -18.7268
#                  RMSD =    32.0278
@<TRIPOS>MOLECULE
inp8.mol2                                                                       
   90   95    0    0    0
SMALL       
GASTEIGER      
 
@<TRIPOS>ATOM
    1 P       107.7862  114.5338  141.3263 P.3      1 UNK          0.0000
    2 P       106.8764  115.5335  144.0815 P.3      1 UNK          0.0000
    3 O       111.0308  113.9451  139.9800 O.3      1 UNK          0.0000
    4 O       113.8065  115.3423  138.7314 O.3      1 UNK          0.0000
    5 H       114.0424  116.1612  138.2536 H        1 UNK          0.0000
    6 O       111.8974  117.2624  139.1774 O.3      1 UNK          0.0000
    7 H       112.8457  117.1399  139.3744 H        1 UNK          0.0000
    8 O       108.6761  115.3869  140.3238 O.3      1 UNK          0.0000
    9 O       111.0741  120.2817  141.6379 O.3      1 UNK          0.0000
   10 H       110.6820  121.0286  141.1232 H        1 UNK          0.0000
   11 O       107.0854  115.4865  142.4589 O.3      1 UNK          0.0000
   12 O       111.3255  117.6488  142.3621 O.3      1 UNK          0.0000
   13 H       111.0311  116.7485  142.2373 H        1 UNK          0.0000
   14 O       108.2400  115.8719  144.8486 O.3      1 UNK          0.0000
   15 O       108.1844  118.5554  144.1757 O.3      1 UNK          0.0000
   16 H       108.6683  118.6369  145.0161 H        1 UNK          0.0000
   17 O       106.7622  114.0346  140.2032 O.3      1 UNK          0.0000
   18 H       107.3079  113.7895  139.4238 H        1 UNK          0.0000
   19 O       108.4602  113.1890  141.8739 O.3      1 UNK          0.0000
   20 H       108.7180  112.6555  141.1053 H        1 UNK          0.0000
   21 O       105.9541  116.7487  144.5781 O.3      1 UNK          0.0000
   22 H       106.3777  117.5837  144.3043 H        1 UNK          0.0000
   23 O       106.6668  125.0160  140.4148 O.2      1 UNK          0.0000
   24 O       106.2163  114.1789  144.6180 O.3      1 UNK          0.0000
   25 H       106.6233  113.4249  144.1611 H        1 UNK          0.0000
   26 O       105.9072  122.1778  143.7775 O.2      1 UNK          0.0000
   27 N       111.3471  112.7615  138.0334 N.ar     1 UNK          0.0000
   28 N       108.7040  120.6589  140.2642 N.ar     1 UNK          0.0000
   29 N       111.1025  111.0067  136.5898 N.ar     1 UNK          0.0000
   30 N       109.0805  113.8160  137.5961 N.ar     1 UNK          0.0000
   31 N       107.9894  123.0352  138.7584 N.ar     1 UNK          0.0000
   32 H       107.6966  123.8724  138.2510 H        1 UNK          0.0000
   33 N       107.1169  121.3789  142.0594 N.am     1 UNK          0.0000
   34 H       107.2098  120.4901  142.5379 H        1 UNK          0.0000
   35 N       107.9036  112.7551  135.7024 N.ar     1 UNK          0.0000
   36 N       106.2775  123.6777  142.1336 N.am     1 UNK          0.0000
   37 H       105.8365  124.4275  142.6319 H        1 UNK          0.0000
   38 N       108.8012  110.8121  134.6609 N.pl3    1 UNK          0.0000
   39 H       108.0090  110.7961  134.0370 H        1 UNK          0.0000
   40 H       109.5182  110.1019  134.5976 H        1 UNK          0.0000
   41 C       112.4608  115.0247  138.3614 C.3      1 UNK          0.0000
   42 H       112.3826  115.0427  137.2744 H        1 UNK          0.0000
   43 C       111.4226  115.9529  139.0023 C.3      1 UNK          0.0000
   44 H       110.4788  115.9116  138.4567 H        1 UNK          0.0000
   45 C       112.0148  113.6668  138.9680 C.3      1 UNK          0.0000
   46 H       112.8713  113.1655  139.4175 H        1 UNK          0.0000
   47 C       111.1227  115.3288  140.3159 C.3      1 UNK          0.0000
   48 H       111.9862  115.5056  140.9581 H        1 UNK          0.0000
   49 C       109.8228  115.8896  140.9340 C.3      1 UNK          0.0000
   50 H       109.7477  115.5403  141.9689 H        1 UNK          0.0000
   51 H       109.8422  116.9825  140.9778 H        1 UNK          0.0000
   52 C       110.1112  112.8922  137.4412 C.ar     1 UNK          0.0000
   53 C       111.7942  111.5063  137.6194 C.ar     1 UNK          0.0000
   54 H       112.6446  111.0319  138.0774 H        1 UNK          0.0000
   55 C       110.0476  111.8521  136.5066 C.ar     1 UNK          0.0000
   56 C       109.9601  119.5882  142.1987 C.3      1 UNK          0.0000
   57 H       109.4372  120.2529  142.8922 H        1 UNK          0.0000
   58 C       108.9589  119.3777  141.0560 C.3      1 UNK          0.0000
   59 H       108.0154  119.0735  141.5393 H        1 UNK          0.0000
   60 H       109.2594  118.5188  140.4694 H        1 UNK          0.0000
   61 C       110.3202  118.3788  143.0611 C.3      1 UNK          0.0000
   62 H       110.7615  118.6605  144.0197 H        1 UNK          0.0000
   63 C       109.3781  120.9836  138.9790 C.ar     1 UNK          0.0000
   64 C       108.9906  117.6940  143.3838 C.3      1 UNK          0.0000
   65 H       108.4749  117.4075  142.4588 H        1 UNK          0.0000
   66 C       107.7837  121.5769  140.7981 C.ar     1 UNK          0.0000
   67 C       108.9379  122.1589  138.2314 C.ar     1 UNK          0.0000
   68 C       107.4957  122.8288  140.1039 C.ar     1 UNK          0.0000
   69 C       108.9123  111.8012  135.6108 C.ar     1 UNK          0.0000
   70 C       109.3527  116.4540  144.1466 C.3      1 UNK          0.0000
   71 H       110.1845  116.7077  144.8067 H        1 UNK          0.0000
   72 H       109.7181  115.7423  143.3936 H        1 UNK          0.0000
   73 C       110.4113  120.1965  138.4133 C.ar     1 UNK          0.0000
   74 H       110.7671  119.3145  138.9519 H        1 UNK          0.0000
   75 C       109.6031  122.4848  136.9833 C.ar     1 UNK          0.0000
   76 H       109.3413  123.4005  136.4626 H        1 UNK          0.0000
   77 C       111.0337  120.4832  137.1126 C.ar     1 UNK          0.0000
   78 C       110.6389  121.6891  136.4714 C.ar     1 UNK          0.0000
   79 C       108.0122  113.6942  136.7187 C.ar     1 UNK          0.0000
   80 H       107.1881  114.3885  136.8397 H        1 UNK          0.0000
   81 C       106.7922  123.8980  140.8543 C.2      1 UNK          0.0000
   82 C       106.4001  122.3914  142.6897 C.2      1 UNK          0.0000
   83 C       112.1090  119.5418  136.5090 C.3      1 UNK          0.0000
   84 H       112.0744  118.5499  136.9833 H        1 UNK          0.0000
   85 H       111.9876  119.3753  135.4348 H        1 UNK          0.0000
   86 H       113.1464  119.8935  136.6485 H        1 UNK          0.0000
   87 C       111.4131  122.1652  135.2521 C.3      1 UNK          0.0000
   88 H       111.2281  121.5355  134.3866 H        1 UNK          0.0000
   89 H       112.4791  122.1201  135.4683 H        1 UNK          0.0000
   90 H       111.1780  123.1963  134.9818 H        1 UNK          0.0000
@<TRIPOS>BOND
     1     1     8   1 
     2     1    11   1 
     3     1    17   1 
     4     1    19   1 
     5     2    11   1 
     6     2    14   1 
     7     2    21   1 
     8     2    24   1 
     9     3    45   1 
    10     3    47   1 
    11     4     5   1 
    12     4    41   1 
    13     6     7   1 
    14     6    43   1 
    15     8    49   1 
    16     9    10   1 
    17     9    56   1 
    18    12    13   1 
    19    12    61   1 
    20    14    70   1 
    21    15    16   1 
    22    15    64   1 
    23    17    18   1 
    24    19    20   1 
    25    21    22   1 
    26    23    81   2 
    27    24    25   1 
    28    26    82   2 
    29    27    45   1 
    30    27    52   1 
    31    27    53   1 
    32    28    58   1 
    33    28    63   ar
    34    28    66   ar
    35    29    53   2 
    36    29    55   1 
    37    30    52   ar
    38    30    79   ar
    39    31    32   1 
    40    31    67   ar
    41    31    68   ar
    42    33    34   1 
    43    33    66   1 
    44    33    82   am
    45    35    69   ar
    46    35    79   ar
    47    36    37   1 
    48    36    81   am
    49    36    82   am
    50    38    39   1 
    51    38    40   1 
    52    38    69   1 
    53    41    42   1 
    54    41    43   1 
    55    41    45   1 
    56    43    44   1 
    57    43    47   1 
    58    45    46   1 
    59    47    48   1 
    60    47    49   1 
    61    49    50   1 
    62    49    51   1 
    63    52    55   ar
    64    53    54   1 
    65    55    69   ar
    66    56    57   1 
    67    56    58   1 
    68    56    61   1 
    69    58    59   1 
    70    58    60   1 
    71    61    62   1 
    72    61    64   1 
    73    63    67   ar
    74    63    73   ar
    75    64    65   1 
    76    64    70   1 
    77    66    68   ar
    78    67    75   ar
    79    68    81   1 
    80    70    71   1 
    81    70    72   1 
    82    73    74   1 
    83    73    77   ar
    84    75    76   1 
    85    75    78   ar
    86    77    78   ar
    87    77    83   1 
    88    78    87   1 
    89    79    80   1 
    90    83    84   1 
    91    83    85   1 
    92    83    86   1 
    93    87    88   1 
    94    87    89   1 
    95    87    90   1 
#MOLECULE END
 
#  inp8.mol2               9    of   10
#                 SCORE =  -486.1401
#              dG-SCORE =   -12.1491
#     LIGAND_EFFICIENCY =    -0.9172
# NUMBER_OF_HEAVY_ATOMS =         53
#                   ASA =  -311.4731
#                   ELE =     0.0000
#                   HYD =  -162.0881
#                   VDW =   -12.5789
#                  RMSD =    37.9316
@<TRIPOS>MOLECULE
inp8.mol2                                                                       
   90   95    0    0    0
SMALL       
GASTEIGER      
 
@<TRIPOS>ATOM
    1 P       113.5944  118.1660  135.2412 P.3      1 UNK          0.0000
    2 P       115.1036  119.6071  137.0769 P.3      1 UNK          0.0000
    3 O       115.6150  115.6318  132.8962 O.3      1 UNK          0.0000
    4 O       117.7949  115.3365  130.5560 O.3      1 UNK          0.0000
    5 H       117.7350  114.6308  129.8888 H        1 UNK          0.0000
    6 O       117.5929  118.0233  131.1999 O.3      1 UNK          0.0000
    7 H       118.3464  117.3998  131.2293 H        1 UNK          0.0000
    8 O       114.6432  117.7851  134.0668 O.3      1 UNK          0.0000
    9 O       111.4956  125.5041  137.1052 O.3      1 UNK          0.0000
   10 H       110.6077  125.6355  137.5107 H        1 UNK          0.0000
   11 O       113.8649  119.4614  136.1349 O.3      1 UNK          0.0000
   12 O       113.6685  124.5983  135.8583 O.3      1 UNK          0.0000
   13 H       114.6254  124.7702  135.7649 H        1 UNK          0.0000
   14 O       115.9289  120.9556  137.0181 O.3      1 UNK          0.0000
   15 O       113.1507  122.0398  138.6214 O.3      1 UNK          0.0000
   16 H       113.4570  122.5618  139.3915 H        1 UNK          0.0000
   17 O       112.3079  118.6307  134.4597 O.3      1 UNK          0.0000
   18 H       112.2323  118.0495  133.6886 H        1 UNK          0.0000
   19 O       113.4846  116.8572  136.1433 O.3      1 UNK          0.0000
   20 H       113.7036  116.1084  135.5569 H        1 UNK          0.0000
   21 O       114.4448  119.3919  138.5107 O.3      1 UNK          0.0000
   22 H       113.6811  118.7983  138.3922 H        1 UNK          0.0000
   23 O       105.9148  123.1815  139.9105 O.2      1 UNK          0.0000
   24 O       115.9606  118.3626  136.7374 O.3      1 UNK          0.0000
   25 H       115.3167  117.6465  136.9455 H        1 UNK          0.0000
   26 O       109.3770  120.4626  140.8757 O.2      1 UNK          0.0000
   27 N       114.2917  114.5935  131.3550 N.ar     1 UNK          0.0000
   28 N       109.6188  123.1140  136.8925 N.ar     1 UNK          0.0000
   29 N       112.4256  113.2905  131.0702 N.ar     1 UNK          0.0000
   30 N       113.1436  116.8102  131.0656 N.ar     1 UNK          0.0000
   31 N       106.8224  123.6988  137.3205 N.ar     1 UNK          0.0000
   32 H       105.8248  123.8184  137.4269 H        1 UNK          0.0000
   33 N       109.4855  121.6019  138.9322 N.am     1 UNK          0.0000
   34 H       110.4182  121.2390  138.8083 H        1 UNK          0.0000
   35 N       110.8096  116.5950  130.3027 N.ar     1 UNK          0.0000
   36 N       107.5762  121.7733  140.4771 N.am     1 UNK          0.0000
   37 H       107.1181  121.4856  141.3440 H        1 UNK          0.0000
   38 N       109.8517  114.4574  129.9279 N.pl3    1 UNK          0.0000
   39 H       109.0500  114.9032  129.5022 H        1 UNK          0.0000
   40 H       109.9016  113.4512  129.9932 H        1 UNK          0.0000
   41 C       116.4799  115.8989  130.7213 C.3      1 UNK          0.0000
   42 H       115.9927  116.0498  129.7523 H        1 UNK          0.0000
   43 C       116.5046  117.2008  131.5515 C.3      1 UNK          0.0000
   44 H       115.5596  117.7368  131.4154 H        1 UNK          0.0000
   45 C       115.6909  114.9389  131.6451 C.3      1 UNK          0.0000
   46 H       116.2537  114.0059  131.7656 H        1 UNK          0.0000
   47 C       116.5831  116.6788  132.9849 C.3      1 UNK          0.0000
   48 H       117.5866  116.2863  133.1935 H        1 UNK          0.0000
   49 C       116.1000  117.6311  134.1006 C.3      1 UNK          0.0000
   50 H       116.3662  117.2134  135.0673 H        1 UNK          0.0000
   51 H       116.6436  118.5725  134.0074 H        1 UNK          0.0000
   52 C       113.2316  115.4319  131.1174 C.ar     1 UNK          0.0000
   53 C       113.7421  113.3034  131.3340 C.ar     1 UNK          0.0000
   54 H       114.3523  112.4272  131.5209 H        1 UNK          0.0000
   55 C       112.1375  114.5963  130.8525 C.ar     1 UNK          0.0000
   56 C       111.9012  124.1416  137.3670 C.3      1 UNK          0.0000
   57 H       111.8125  123.9804  138.4499 H        1 UNK          0.0000
   58 C       111.0941  122.9642  136.7160 C.3      1 UNK          0.0000
   59 H       111.4412  122.0296  137.1727 H        1 UNK          0.0000
   60 H       111.3634  122.8880  135.6566 H        1 UNK          0.0000
   61 C       113.4007  123.9694  137.1355 C.3      1 UNK          0.0000
   62 H       113.8767  124.5808  137.9115 H        1 UNK          0.0000
   63 C       108.9292  124.0538  136.0906 C.ar     1 UNK          0.0000
   64 C       113.8208  122.4516  137.4129 C.3      1 UNK          0.0000
   65 H       113.3860  121.8466  136.6190 H        1 UNK          0.0000
   66 C       108.9003  122.4874  138.0135 C.ar     1 UNK          0.0000
   67 C       107.5095  124.3204  136.2353 C.ar     1 UNK          0.0000
   68 C       107.5537  122.9726  138.2499 C.ar     1 UNK          0.0000
   69 C       110.9107  115.2139  130.3748 C.ar     1 UNK          0.0000
   70 C       115.4037  122.2437  137.3687 C.3      1 UNK          0.0000
   71 H       115.9070  122.6161  138.2595 H        1 UNK          0.0000
   72 H       115.7575  122.9017  136.5722 H        1 UNK          0.0000
   73 C       109.6442  124.8517  135.1148 C.ar     1 UNK          0.0000
   74 H       110.7149  124.7285  134.9890 H        1 UNK          0.0000
   75 C       106.8249  125.2046  135.3898 C.ar     1 UNK          0.0000
   76 H       105.7486  125.3348  135.4376 H        1 UNK          0.0000
   77 C       108.9821  125.7909  134.3373 C.ar     1 UNK          0.0000
   78 C       107.5571  125.9671  134.4161 C.ar     1 UNK          0.0000
   79 C       111.9649  117.3130  130.5578 C.ar     1 UNK          0.0000
   80 H       111.9585  118.3703  130.3292 H        1 UNK          0.0000
   81 C       106.9413  122.6664  139.6216 C.2      1 UNK          0.0000
   82 C       108.8291  121.2312  140.1450 C.2      1 UNK          0.0000
   83 C       109.8677  126.4860  133.3163 C.3      1 UNK          0.0000
   84 H       109.4883  126.2689  132.3208 H        1 UNK          0.0000
   85 H       109.8718  127.5574  133.4566 H        1 UNK          0.0000
   86 H       110.9069  126.1425  133.3614 H        1 UNK          0.0000
   87 C       106.7709  126.8428  133.4730 C.3      1 UNK          0.0000
   88 H       106.8797  126.5078  132.4388 H        1 UNK          0.0000
   89 H       107.1360  127.8689  133.4831 H        1 UNK          0.0000
   90 H       105.7001  126.8639  133.7084 H        1 UNK          0.0000
@<TRIPOS>BOND
     1     1     8   1 
     2     1    11   1 
     3     1    17   1 
     4     1    19   1 
     5     2    11   1 
     6     2    14   1 
     7     2    21   1 
     8     2    24   1 
     9     3    45   1 
    10     3    47   1 
    11     4     5   1 
    12     4    41   1 
    13     6     7   1 
    14     6    43   1 
    15     8    49   1 
    16     9    10   1 
    17     9    56   1 
    18    12    13   1 
    19    12    61   1 
    20    14    70   1 
    21    15    16   1 
    22    15    64   1 
    23    17    18   1 
    24    19    20   1 
    25    21    22   1 
    26    23    81   2 
    27    24    25   1 
    28    26    82   2 
    29    27    45   1 
    30    27    52   1 
    31    27    53   1 
    32    28    58   1 
    33    28    63   ar
    34    28    66   ar
    35    29    53   2 
    36    29    55   1 
    37    30    52   ar
    38    30    79   ar
    39    31    32   1 
    40    31    67   ar
    41    31    68   ar
    42    33    34   1 
    43    33    66   1 
    44    33    82   am
    45    35    69   ar
    46    35    79   ar
    47    36    37   1 
    48    36    81   am
    49    36    82   am
    50    38    39   1 
    51    38    40   1 
    52    38    69   1 
    53    41    42   1 
    54    41    43   1 
    55    41    45   1 
    56    43    44   1 
    57    43    47   1 
    58    45    46   1 
    59    47    48   1 
    60    47    49   1 
    61    49    50   1 
    62    49    51   1 
    63    52    55   ar
    64    53    54   1 
    65    55    69   ar
    66    56    57   1 
    67    56    58   1 
    68    56    61   1 
    69    58    59   1 
    70    58    60   1 
    71    61    62   1 
    72    61    64   1 
    73    63    67   ar
    74    63    73   ar
    75    64    65   1 
    76    64    70   1 
    77    66    68   ar
    78    67    75   ar
    79    68    81   1 
    80    70    71   1 
    81    70    72   1 
    82    73    74   1 
    83    73    77   ar
    84    75    76   1 
    85    75    78   ar
    86    77    78   ar
    87    77    83   1 
    88    78    87   1 
    89    79    80   1 
    90    83    84   1 
    91    83    85   1 
    92    83    86   1 
    93    87    88   1 
    94    87    89   1 
    95    87    90   1 
#MOLECULE END
 
#  inp8.mol2              10    of   10
#                 SCORE =  -351.7541
#              dG-SCORE =    -9.9215
#     LIGAND_EFFICIENCY =    -0.6637
# NUMBER_OF_HEAVY_ATOMS =         53
#                   ASA =  -126.8596
#                   ELE =     0.0000
#                   HYD =  -224.8944
#                   VDW =     0.0000
#                  RMSD =    37.8056
@<TRIPOS>MOLECULE
inp8.mol2                                                                       
   90   95    0    0    0
SMALL       
GASTEIGER      
 
@<TRIPOS>ATOM
    1 P       113.5614  118.6029  134.9860 P.3      1 UNK          0.0000
    2 P       114.7792  119.9552  137.2543 P.3      1 UNK          0.0000
    3 O       115.2143  115.8356  133.0046 O.3      1 UNK          0.0000
    4 O       117.4527  115.2088  130.6121 O.3      1 UNK          0.0000
    5 H       117.4748  114.8602  129.7026 H        1 UNK          0.0000
    6 O       117.5169  117.8970  131.1581 O.3      1 UNK          0.0000
    7 H       118.1572  117.2260  130.8555 H        1 UNK          0.0000
    8 O       114.5676  118.3800  133.7440 O.3      1 UNK          0.0000
    9 O       111.1703  125.3731  137.6763 O.3      1 UNK          0.0000
   10 H       110.3131  125.3993  138.1541 H        1 UNK          0.0000
   11 O       113.9643  119.9004  135.8605 O.3      1 UNK          0.0000
   12 O       113.4683  124.7725  136.3369 O.3      1 UNK          0.0000
   13 H       114.4212  124.7275  136.1254 H        1 UNK          0.0000
   14 O       115.8063  121.2052  137.2743 O.3      1 UNK          0.0000
   15 O       113.4088  121.7891  138.5052 O.3      1 UNK          0.0000
   16 H       113.3734  122.3919  139.2750 H        1 UNK          0.0000
   17 O       112.1014  118.8664  134.3662 O.3      1 UNK          0.0000
   18 H       111.8338  118.0702  133.8747 H        1 UNK          0.0000
   19 O       113.4729  117.2636  135.8734 O.3      1 UNK          0.0000
   20 H       113.2841  116.5139  135.2839 H        1 UNK          0.0000
   21 O       113.7995  120.0423  138.5274 O.3      1 UNK          0.0000
   22 H       113.1628  119.3088  138.4844 H        1 UNK          0.0000
   23 O       105.3064  122.5702  139.4994 O.2      1 UNK          0.0000
   24 O       115.6421  118.6098  137.3736 O.3      1 UNK          0.0000
   25 H       115.0332  117.8484  137.3696 H        1 UNK          0.0000
   26 O       109.1405  120.8177  141.0363 O.2      1 UNK          0.0000
   27 N       114.0224  114.6074  131.3640 N.ar     1 UNK          0.0000
   28 N       109.4029  123.2889  137.0692 N.ar     1 UNK          0.0000
   29 N       112.2173  113.3064  130.8252 N.ar     1 UNK          0.0000
   30 N       112.9048  116.7812  130.9807 N.ar     1 UNK          0.0000
   31 N       106.5842  123.7282  137.2737 N.ar     1 UNK          0.0000
   32 H       105.5749  123.8436  137.3461 H        1 UNK          0.0000
   33 N       109.2692  121.9973  139.1415 N.am     1 UNK          0.0000
   34 H       110.2628  121.8130  139.1157 H        1 UNK          0.0000
   35 N       110.5987  116.5515  130.2685 N.ar     1 UNK          0.0000
   36 N       107.1893  121.6644  140.3251 N.am     1 UNK          0.0000
   37 H       106.6965  121.2628  141.1127 H        1 UNK          0.0000
   38 N       109.6203  114.4335  130.0000 N.pl3    1 UNK          0.0000
   39 H       108.8569  114.8825  129.5158 H        1 UNK          0.0000
   40 H       109.7772  113.4487  129.8378 H        1 UNK          0.0000
   41 C       116.1761  115.8320  130.8087 C.3      1 UNK          0.0000
   42 H       115.6394  115.9456  129.8581 H        1 UNK          0.0000
   43 C       116.3266  117.1911  131.5172 C.3      1 UNK          0.0000
   44 H       115.4472  117.8065  131.2870 H        1 UNK          0.0000
   45 C       115.3573  114.9952  131.8342 C.3      1 UNK          0.0000
   46 H       115.9023  114.0796  132.0980 H        1 UNK          0.0000
   47 C       116.2772  116.8028  132.9978 C.3      1 UNK          0.0000
   48 H       117.2264  116.3374  133.2946 H        1 UNK          0.0000
   49 C       115.9455  117.9968  133.9269 C.3      1 UNK          0.0000
   50 H       116.0976  117.6871  134.9687 H        1 UNK          0.0000
   51 H       116.6240  118.8333  133.7182 H        1 UNK          0.0000
   52 C       112.9873  115.4360  131.0288 C.ar     1 UNK          0.0000
   53 C       113.4987  113.3126  131.2230 C.ar     1 UNK          0.0000
   54 H       114.0928  112.4316  131.4346 H        1 UNK          0.0000
   55 C       111.9307  114.6247  130.7142 C.ar     1 UNK          0.0000
   56 C       111.7108  124.0628  137.8673 C.3      1 UNK          0.0000
   57 H       111.5957  123.7846  138.9241 H        1 UNK          0.0000
   58 C       110.8895  123.0570  137.0073 C.3      1 UNK          0.0000
   59 H       111.1192  122.0368  137.3470 H        1 UNK          0.0000
   60 H       111.2426  123.0877  135.9692 H        1 UNK          0.0000
   61 C       113.2393  124.0323  137.5389 C.3      1 UNK          0.0000
   62 H       113.7810  124.5131  138.3659 H        1 UNK          0.0000
   63 C       108.7251  124.1518  136.1569 C.ar     1 UNK          0.0000
   64 C       113.7919  122.5792  137.3801 C.3      1 UNK          0.0000
   65 H       113.3535  122.1367  136.4763 H        1 UNK          0.0000
   66 C       108.6592  122.7536  138.1466 C.ar     1 UNK          0.0000
   67 C       107.3203  124.3491  136.2635 C.ar     1 UNK          0.0000
   68 C       107.2652  122.9799  138.2335 C.ar     1 UNK          0.0000
   69 C       110.7088  115.2053  130.3251 C.ar     1 UNK          0.0000
   70 C       115.3370  122.5625  137.1995 C.3      1 UNK          0.0000
   71 H       115.8177  123.1811  137.9671 H        1 UNK          0.0000
   72 H       115.5978  122.9804  136.2191 H        1 UNK          0.0000
   73 C       109.4162  124.8277  135.1199 C.ar     1 UNK          0.0000
   74 H       110.4900  124.7325  134.9992 H        1 UNK          0.0000
   75 C       106.6419  125.1909  135.3640 C.ar     1 UNK          0.0000
   76 H       105.5701  125.3466  135.4632 H        1 UNK          0.0000
   77 C       108.7355  125.6699  134.2205 C.ar     1 UNK          0.0000
   78 C       107.3410  125.8533  134.3423 C.ar     1 UNK          0.0000
   79 C       111.7012  117.2691  130.5988 C.ar     1 UNK          0.0000
   80 H       111.6078  118.3527  130.5517 H        1 UNK          0.0000
   81 C       106.5040  122.4019  139.3836 C.2      1 UNK          0.0000
   82 C       108.5512  121.4676  140.2019 C.2      1 UNK          0.0000
   83 C       109.5251  126.3777  133.1179 C.3      1 UNK          0.0000
   84 H       109.1547  126.0968  132.1237 H        1 UNK          0.0000
   85 H       109.4436  127.4681  133.2116 H        1 UNK          0.0000
   86 H       110.5942  126.1343  133.1555 H        1 UNK          0.0000
   87 C       106.5762  126.7622  133.3795 C.3      1 UNK          0.0000
   88 H       106.6730  126.4139  132.3428 H        1 UNK          0.0000
   89 H       106.9509  127.7928  133.4243 H        1 UNK          0.0000
   90 H       105.5039  126.7951  133.6107 H        1 UNK          0.0000
@<TRIPOS>BOND
     1     1     8   1 
     2     1    11   1 
     3     1    17   1 
     4     1    19   1 
     5     2    11   1 
     6     2    14   1 
     7     2    21   1 
     8     2    24   1 
     9     3    45   1 
    10     3    47   1 
    11     4     5   1 
    12     4    41   1 
    13     6     7   1 
    14     6    43   1 
    15     8    49   1 
    16     9    10   1 
    17     9    56   1 
    18    12    13   1 
    19    12    61   1 
    20    14    70   1 
    21    15    16   1 
    22    15    64   1 
    23    17    18   1 
    24    19    20   1 
    25    21    22   1 
    26    23    81   2 
    27    24    25   1 
    28    26    82   2 
    29    27    45   1 
    30    27    52   1 
    31    27    53   1 
    32    28    58   1 
    33    28    63   ar
    34    28    66   ar
    35    29    53   2 
    36    29    55   1 
    37    30    52   ar
    38    30    79   ar
    39    31    32   1 
    40    31    67   ar
    41    31    68   ar
    42    33    34   1 
    43    33    66   1 
    44    33    82   am
    45    35    69   ar
    46    35    79   ar
    47    36    37   1 
    48    36    81   am
    49    36    82   am
    50    38    39   1 
    51    38    40   1 
    52    38    69   1 
    53    41    42   1 
    54    41    43   1 
    55    41    45   1 
    56    43    44   1 
    57    43    47   1 
    58    45    46   1 
    59    47    48   1 
    60    47    49   1 
    61    49    50   1 
    62    49    51   1 
    63    52    55   ar
    64    53    54   1 
    65    55    69   ar
    66    56    57   1 
    67    56    58   1 
    68    56    61   1 
    69    58    59   1 
    70    58    60   1 
    71    61    62   1 
    72    61    64   1 
    73    63    67   ar
    74    63    73   ar
    75    64    65   1 
    76    64    70   1 
    77    66    68   ar
    78    67    75   ar
    79    68    81   1 
    80    70    71   1 
    81    70    72   1 
    82    73    74   1 
    83    73    77   ar
    84    75    76   1 
    85    75    78   ar
    86    77    78   ar
    87    77    83   1 
    88    78    87   1 
    89    79    80   1 
    90    83    84   1 
    91    83    85   1 
    92    83    86   1 
    93    87    88   1 
    94    87    89   1 
    95    87    90   1 
#MOLECULE END
 
