@<TRIPOS>MOLECULE
inp11.mol2
 54 56 0 0 0
SMALL
GASTEIGER

@<TRIPOS>ATOM
     1 C           76.9150    57.2910    86.8930 C.2       1  UNK         0.0000
     2 C           76.4710    56.0290    86.7450 C.2       1  UNK         0.0000
     3 C           77.3970    54.8490    86.4960 C.3       1  UNK         0.0000
     4 H1          77.1560    54.0620    87.2210 H         1  UNK         0.0000
     5 H2          77.1560    54.4420    85.5050 H         1  UNK         0.0000
     6 C           78.8980    55.1570    86.5760 C.ar      1  UNK         0.0000
     7 C           79.3460    56.4840    86.7390 C.ar      1  UNK         0.0000
     8 C           78.3870    57.6630    86.8300 C.3       1  UNK         0.0000
     9 H3          78.5520    58.3340    85.9760 H         1  UNK         0.0000
    10 H4          78.6360    58.2580    87.7200 H         1  UNK         0.0000
    11 N           79.8600    54.1100    86.4920 N.ar      1  UNK         0.0000
    12 C           81.2280    54.4520    86.6430 C.ar      1  UNK         0.0000
    13 C           81.5750    55.8280    86.8010 C.ar      1  UNK         0.0000
    14 N           80.6460    56.8000    86.8380 N.ar      1  UNK         0.0000
    15 N           82.2000    53.5150    86.6440 N.ar      1  UNK         0.0000
    16 C           83.4760    53.9100    86.7830 C.ar      1  UNK         0.0000
    17 N           83.8990    55.1710    86.9280 N.ar      1  UNK         0.0000
    18 C           82.9540    56.1280    86.9360 C.ar      1  UNK         0.0000
    19 C           76.0230    58.5170    87.0790 C.3       1  UNK         0.0000
    20 H5          76.3790    59.3530    86.4630 H         1  UNK         0.0000
    21 H6          74.9810    58.3510    86.7840 H         1  UNK         0.0000
    22 H7          76.0390    58.8600    88.1220 H         1  UNK         0.0000
    23 C           75.0050    55.6060    86.8300 C.3       1  UNK         0.0000
    24 H8          74.8920    54.7020    87.4430 H         1  UNK         0.0000
    25 H9          74.3590    56.3610    87.2910 H         1  UNK         0.0000
    26 H10         74.6070    55.3730    85.8350 H         1  UNK         0.0000
    27 O           84.4110    52.9290    86.7910 O.3       1  UNK         0.0000
    28 H11         85.2920    53.3450    86.8650 H         1  UNK         0.0000
    29 O           83.3880    57.4110    87.0980 O.3       1  UNK         0.0000
    30 H12         82.6380    58.0340    87.0720 H         1  UNK         0.0000
    31 C           79.5060    52.6820    86.1380 C.3       1  UNK         0.0000
    32 H13         78.4720    52.6470    85.7730 H         1  UNK         0.0000
    33 H14         80.1300    52.3960    85.2780 H         1  UNK         0.0000
    34 C           79.6800    51.6310    87.2800 C.3       1  UNK         0.0000
    35 O           79.7530    52.0850    88.5450 O.3       1  UNK         0.0000
    36 H15         80.6760    52.3020    88.7870 H         1  UNK         0.0000
    37 C           79.7030    50.0820    87.0820 C.3       1  UNK         0.0000
    38 H16         79.2410    49.7870    86.1230 H         1  UNK         0.0000
    39 O           81.0850    49.6480    87.1000 O.3       1  UNK         0.0000
    40 H17         81.1830    48.7010    87.3530 H         1  UNK         0.0000
    41 C           78.8930    49.3260    88.1600 C.3       1  UNK         0.0000
    42 C           77.4600    49.7550    88.5050 C.3       1  UNK         0.0000
    43 H18         76.7740    48.8930    88.4920 H         1  UNK         0.0000
    44 H19         77.4340    50.1720    89.5220 H         1  UNK         0.0000
    45 O           77.0330    50.7580    87.5600 O.3       1  UNK         0.0000
    46 O           79.1860    48.0230    88.2930 O.3       1  UNK         0.0000
    47 H20         78.6650    47.6260    89.0220 H         1  UNK         0.0000
    48 P           76.1570    50.3650    86.2650 P.3       1  UNK         0.0000
    49 O           77.0140    49.3110    85.4080 O.3       1  UNK         0.0000
    50 H21         76.4490    48.9630    84.6870 H         1  UNK         0.0000
    51 O           75.9490    51.6970    85.3970 O.3       1  UNK         0.0000
    52 H22         75.3010    51.5300    84.6850 H         1  UNK         0.0000
    53 O           74.7580    49.7360    86.7210 O.3       1  UNK         0.0000
    54 H23         74.1990    50.3990    87.1680 H         1  UNK         0.0000
@<TRIPOS>BOND
     1     1     2   2
     2     1     8   1
     3     1    19   1
     4     2     3   1
     5     2    23   1
     6     3     4   1
     7     3     5   1
     8     3     6   1
     9     6     7  ar
    10     6    11  ar
    11     7     8   1
    12     7    14  ar
    13     8     9   1
    14     8    10   1
    15    11    12  ar
    16    11    31   1
    17    12    13  ar
    18    12    15  ar
    19    13    14  ar
    20    13    18  ar
    21    15    16  ar
    22    16    17  ar
    23    16    27   1
    24    17    18  ar
    25    18    29   1
    26    19    20   1
    27    19    21   1
    28    19    22   1
    29    23    24   1
    30    23    25   1
    31    23    26   1
    32    27    28   1
    33    29    30   1
    34    31    32   1
    35    31    33   1
    36    31    34   1
    37    34    35   1
    38    34    37   1
    39    35    36   1
    40    37    38   1
    41    37    39   1
    42    37    41   1
    43    39    40   1
    44    41    42   1
    45    41    46   1
    46    42    43   1
    47    42    44   1
    48    42    45   1
    49    45    48   1
    50    46    47   1
    51    48    49   1
    52    48    51   1
    53    48    53   1
    54    49    50   1
    55    51    52   1
    56    53    54   1

