#  inp11.mol2              1    of   10
#                 SCORE =  -300.9127
#              dG-SCORE =    -7.3102
#     LIGAND_EFFICIENCY =    -0.9707
# NUMBER_OF_HEAVY_ATOMS =         31
#                   ASA =  -198.8638
#                   ELE =     0.0000
#                   HYD =  -102.0488
#                   VDW =     0.0000
#                  RMSD =    29.8008
@<TRIPOS>MOLECULE
inp11.mol2                                                                      
   54   56    0    0    0
SMALL       
GASTEIGER      
 
@<TRIPOS>ATOM
    1 C        91.4805   79.2259   72.3818 C.2      1 UNK          0.0000
    2 C        92.2121   78.1206   72.1480 C.2      1 UNK          0.0000
    3 C        93.0924   77.4712   73.2040 C.3      1 UNK          0.0000
    4 H        92.8489   76.4025   73.2470 H        1 UNK          0.0000
    5 H        94.1318   77.5385   72.8561 H        1 UNK          0.0000
    6 C        92.9812   78.0644   74.6147 C.ar     1 UNK          0.0000
    7 C        92.2041   79.2184   74.8438 C.ar     1 UNK          0.0000
    8 C        91.4576   79.9339   73.7262 C.3      1 UNK          0.0000
    9 H        91.8650   80.9470   73.6059 H        1 UNK          0.0000
   10 H        90.4107   80.0752   74.0295 H        1 UNK          0.0000
   11 N        93.6552   77.4578   75.7131 N.ar     1 UNK          0.0000
   12 C        93.4557   78.0131   77.0027 C.ar     1 UNK          0.0000
   13 C        92.6505   79.1860   77.1246 C.ar     1 UNK          0.0000
   14 N        92.0574   79.7597   76.0624 N.ar     1 UNK          0.0000
   15 N        94.0017   77.4616   78.1074 N.ar     1 UNK          0.0000
   16 C        93.7788   78.0446   79.2965 C.ar     1 UNK          0.0000
   17 N        93.0487   79.1453   79.5097 N.ar     1 UNK          0.0000
   18 C        92.4869   79.7162   78.4292 C.ar     1 UNK          0.0000
   19 C        90.6336   79.9525   71.3386 C.3      1 UNK          0.0000
   20 H        90.7674   81.0391   71.4186 H        1 UNK          0.0000
   21 H        90.8925   79.6948   70.3057 H        1 UNK          0.0000
   22 H        89.5650   79.7507   71.4903 H        1 UNK          0.0000
   23 C        92.2423   77.3605   70.8226 C.3      1 UNK          0.0000
   24 H        92.1638   76.2779   70.9888 H        1 UNK          0.0000
   25 H        91.4157   77.6195   70.1521 H        1 UNK          0.0000
   26 H        93.1853   77.5379   70.2915 H        1 UNK          0.0000
   27 O        94.3383   77.4435   80.3745 O.3      1 UNK          0.0000
   28 H        94.1309   77.9775   81.1661 H        1 UNK          0.0000
   29 O        91.7318   80.8301   78.6524 O.3      1 UNK          0.0000
   30 H        91.3827   81.1832   77.8129 H        1 UNK          0.0000
   31 C        94.6545   76.3324   75.5566 C.3      1 UNK          0.0000
   32 H        94.9080   76.2206   74.4951 H        1 UNK          0.0000
   33 H        95.5854   76.6536   76.0477 H        1 UNK          0.0000
   34 C        94.2173   74.9454   76.1259 C.3      1 UNK          0.0000
   35 O        92.9060   74.7460   76.3548 O.3      1 UNK          0.0000
   36 H        92.6579   75.0425   77.2538 H        1 UNK          0.0000
   37 C        95.1722   73.7368   76.3844 C.3      1 UNK          0.0000
   38 H        96.1107   73.8290   75.8093 H        1 UNK          0.0000
   39 O        95.4803   73.7034   77.7995 O.3      1 UNK          0.0000
   40 H        95.7489   72.8077   78.1092 H        1 UNK          0.0000
   41 C        94.5666   72.3861   75.9389 C.3      1 UNK          0.0000
   42 C        93.9451   72.2303   74.5439 C.3      1 UNK          0.0000
   43 H        94.3403   71.3389   74.0310 H        1 UNK          0.0000
   44 H        92.8582   72.0930   74.6369 H        1 UNK          0.0000
   45 O        94.2182   73.4207   73.7759 O.3      1 UNK          0.0000
   46 O        95.1330   71.2949   76.4772 O.3      1 UNK          0.0000
   47 H        94.6678   70.4846   76.1816 H        1 UNK          0.0000
   48 P        95.4639   73.4873   72.7548 P.3      1 UNK          0.0000
   49 O        96.7979   73.2160   73.6072 O.3      1 UNK          0.0000
   50 H        97.5510   73.1248   72.9868 H        1 UNK          0.0000
   51 O        95.5210   74.9731   72.1547 O.3      1 UNK          0.0000
   52 H        96.1686   75.0100   71.4240 H        1 UNK          0.0000
   53 O        95.2844   72.3936   71.6005 O.3      1 UNK          0.0000
   54 H        94.5229   72.6030   71.0276 H        1 UNK          0.0000
@<TRIPOS>BOND
     1     1     2   2 
     2     1     8   1 
     3     1    19   1 
     4     2     3   1 
     5     2    23   1 
     6     3     4   1 
     7     3     5   1 
     8     3     6   1 
     9     6     7   ar
    10     6    11   ar
    11     7     8   1 
    12     7    14   ar
    13     8     9   1 
    14     8    10   1 
    15    11    12   ar
    16    11    31   1 
    17    12    13   ar
    18    12    15   ar
    19    13    14   ar
    20    13    18   ar
    21    15    16   ar
    22    16    17   ar
    23    16    27   1 
    24    17    18   ar
    25    18    29   1 
    26    19    20   1 
    27    19    21   1 
    28    19    22   1 
    29    23    24   1 
    30    23    25   1 
    31    23    26   1 
    32    27    28   1 
    33    29    30   1 
    34    31    32   1 
    35    31    33   1 
    36    31    34   1 
    37    34    35   1 
    38    34    37   1 
    39    35    36   1 
    40    37    38   1 
    41    37    39   1 
    42    37    41   1 
    43    39    40   1 
    44    41    42   1 
    45    41    46   1 
    46    42    43   1 
    47    42    44   1 
    48    42    45   1 
    49    45    48   1 
    50    46    47   1 
    51    48    49   1 
    52    48    51   1 
    53    48    53   1 
    54    49    50   1 
    55    51    52   1 
    56    53    54   1 
#MOLECULE END
 
#  inp11.mol2              2    of   10
#                 SCORE =  -297.8687
#              dG-SCORE =    -7.1999
#     LIGAND_EFFICIENCY =    -0.9609
# NUMBER_OF_HEAVY_ATOMS =         31
#                   ASA =  -197.9125
#                   ELE =     0.0000
#                   HYD =   -99.9562
#                   VDW =     0.0000
#                  RMSD =    33.9359
@<TRIPOS>MOLECULE
inp11.mol2                                                                      
   54   56    0    0    0
SMALL       
GASTEIGER      
 
@<TRIPOS>ATOM
    1 C        89.1311   84.4853   75.9848 C.2      1 UNK          0.0000
    2 C        89.9736   83.4938   75.6403 C.2      1 UNK          0.0000
    3 C        89.6807   82.5104   74.5182 C.3      1 UNK          0.0000
    4 H        90.5501   82.4799   73.8501 H        1 UNK          0.0000
    5 H        89.5988   81.5112   74.9662 H        1 UNK          0.0000
    6 C        88.4251   82.8081   73.6881 C.ar     1 UNK          0.0000
    7 C        87.5571   83.8556   74.0585 C.ar     1 UNK          0.0000
    8 C        87.8039   84.7242   75.2844 C.3      1 UNK          0.0000
    9 H        86.9866   84.5801   76.0040 H        1 UNK          0.0000
   10 H        87.7491   85.7817   74.9897 H        1 UNK          0.0000
   11 N        88.1196   82.0364   72.5305 N.ar     1 UNK          0.0000
   12 C        86.9832   82.4063   71.7672 C.ar     1 UNK          0.0000
   13 C        86.1684   83.4827   72.2324 C.ar     1 UNK          0.0000
   14 N        86.4609   84.1690   73.3515 N.ar     1 UNK          0.0000
   15 N        86.6591   81.7724   70.6201 N.ar     1 UNK          0.0000
   16 C        85.5639   82.1690   69.9516 C.ar     1 UNK          0.0000
   17 N        84.7366   83.1573   70.3106 N.ar     1 UNK          0.0000
   18 C        85.0351   83.8121   71.4469 C.ar     1 UNK          0.0000
   19 C        89.3485   85.4560   77.1441 C.3      1 UNK          0.0000
   20 H        88.4183   85.6009   77.7086 H        1 UNK          0.0000
   21 H        90.0898   85.1106   77.8732 H        1 UNK          0.0000
   22 H        89.6559   86.4441   76.7768 H        1 UNK          0.0000
   23 C        91.3292   83.2353   76.2968 C.3      1 UNK          0.0000
   24 H        92.1021   83.0452   75.5403 H        1 UNK          0.0000
   25 H        91.6949   84.0803   76.8902 H        1 UNK          0.0000
   26 H        91.2876   82.3515   76.9448 H        1 UNK          0.0000
   27 O        85.2913   81.5088   68.7999 O.3      1 UNK          0.0000
   28 H        84.4606   81.8665   68.4301 H        1 UNK          0.0000
   29 O        84.1971   84.8282   71.8022 O.3      1 UNK          0.0000
   30 H        84.4808   85.2297   72.6446 H        1 UNK          0.0000
   31 C        88.8742   80.7830   72.1439 C.3      1 UNK          0.0000
   32 H        89.5184   80.4785   72.9781 H        1 UNK          0.0000
   33 H        88.1327   79.9770   72.0372 H        1 UNK          0.0000
   34 C        89.7333   80.8757   70.8430 C.3      1 UNK          0.0000
   35 O        90.0477   82.1015   70.3846 O.3      1 UNK          0.0000
   36 H        89.3508   82.4422   69.7880 H        1 UNK          0.0000
   37 C        90.3236   79.6567   70.0653 C.3      1 UNK          0.0000
   38 H        90.3755   78.7546   70.7005 H        1 UNK          0.0000
   39 O        89.4656   79.3918   68.9285 O.3      1 UNK          0.0000
   40 H        89.9320   78.9168   68.2024 H        1 UNK          0.0000
   41 C        91.7766   79.8916   69.5928 C.3      1 UNK          0.0000
   42 C        92.8411   80.4129   70.5683 C.3      1 UNK          0.0000
   43 H        93.7507   79.7923   70.5315 H        1 UNK          0.0000
   44 H        93.1355   81.4331   70.2831 H        1 UNK          0.0000
   45 O        92.2876   80.4240   71.9006 O.3      1 UNK          0.0000
   46 O        92.1992   79.0862   68.6058 O.3      1 UNK          0.0000
   47 H        93.1097   79.3249   68.3332 H        1 UNK          0.0000
   48 P        92.5490   79.2051   72.9228 P.3      1 UNK          0.0000
   49 O        91.9759   77.8713   72.2354 O.3      1 UNK          0.0000
   50 H        92.2390   77.1015   72.7817 H        1 UNK          0.0000
   51 O        91.7139   79.5041   74.2585 O.3      1 UNK          0.0000
   52 H        91.9633   78.8651   74.9545 H        1 UNK          0.0000
   53 O        94.1145   79.0711   73.2257 O.3      1 UNK          0.0000
   54 H        94.4485   79.8436   73.7193 H        1 UNK          0.0000
@<TRIPOS>BOND
     1     1     2   2 
     2     1     8   1 
     3     1    19   1 
     4     2     3   1 
     5     2    23   1 
     6     3     4   1 
     7     3     5   1 
     8     3     6   1 
     9     6     7   ar
    10     6    11   ar
    11     7     8   1 
    12     7    14   ar
    13     8     9   1 
    14     8    10   1 
    15    11    12   ar
    16    11    31   1 
    17    12    13   ar
    18    12    15   ar
    19    13    14   ar
    20    13    18   ar
    21    15    16   ar
    22    16    17   ar
    23    16    27   1 
    24    17    18   ar
    25    18    29   1 
    26    19    20   1 
    27    19    21   1 
    28    19    22   1 
    29    23    24   1 
    30    23    25   1 
    31    23    26   1 
    32    27    28   1 
    33    29    30   1 
    34    31    32   1 
    35    31    33   1 
    36    31    34   1 
    37    34    35   1 
    38    34    37   1 
    39    35    36   1 
    40    37    38   1 
    41    37    39   1 
    42    37    41   1 
    43    39    40   1 
    44    41    42   1 
    45    41    46   1 
    46    42    43   1 
    47    42    44   1 
    48    42    45   1 
    49    45    48   1 
    50    46    47   1 
    51    48    49   1 
    52    48    51   1 
    53    48    53   1 
    54    49    50   1 
    55    51    52   1 
    56    53    54   1 
#MOLECULE END
 
#  inp11.mol2              3    of   10
#                 SCORE =  -296.2559
#              dG-SCORE =    -6.3163
#     LIGAND_EFFICIENCY =    -0.9557
# NUMBER_OF_HEAVY_ATOMS =         31
#                   ASA =  -234.7767
#                   ELE =     0.0000
#                   HYD =   -54.9188
#                   VDW =    -6.5604
#                  RMSD =    29.6761
@<TRIPOS>MOLECULE
inp11.mol2                                                                      
   54   56    0    0    0
SMALL       
GASTEIGER      
 
@<TRIPOS>ATOM
    1 C        92.4289   80.1618   77.6172 C.2      1 UNK          0.0000
    2 C        92.6506   78.9093   78.0853 C.2      1 UNK          0.0000
    3 C        92.7184   77.6527   77.2021 C.3      1 UNK          0.0000
    4 H        93.5927   77.0717   77.5178 H        1 UNK          0.0000
    5 H        91.8405   77.0387   77.4498 H        1 UNK          0.0000
    6 C        92.8005   77.9330   75.7077 C.ar     1 UNK          0.0000
    7 C        92.5553   79.2652   75.1861 C.ar     1 UNK          0.0000
    8 C        92.3223   80.4800   76.1347 C.3      1 UNK          0.0000
    9 H        91.3597   80.9477   75.8987 H        1 UNK          0.0000
   10 H        93.0667   81.2470   75.8886 H        1 UNK          0.0000
   11 N        93.1217   76.8627   74.7393 N.ar     1 UNK          0.0000
   12 C        93.1387   77.2030   73.3421 C.ar     1 UNK          0.0000
   13 C        92.8223   78.5890   72.9273 C.ar     1 UNK          0.0000
   14 N        92.5400   79.5667   73.8755 N.ar     1 UNK          0.0000
   15 N        93.3989   76.2496   72.3431 N.ar     1 UNK          0.0000
   16 C        93.3441   76.6346   71.0349 C.ar     1 UNK          0.0000
   17 N        93.0562   77.8918   70.5759 N.ar     1 UNK          0.0000
   18 C        92.8103   78.8776   71.5201 C.ar     1 UNK          0.0000
   19 C        92.2812   81.4025   78.5198 C.3      1 UNK          0.0000
   20 H        91.4498   82.0308   78.1829 H        1 UNK          0.0000
   21 H        92.0752   81.1496   79.5610 H        1 UNK          0.0000
   22 H        93.1849   82.0199   78.4897 H        1 UNK          0.0000
   23 C        92.9277   78.5629   79.4999 C.3      1 UNK          0.0000
   24 H        93.9109   78.1133   79.5754 H        1 UNK          0.0000
   25 H        92.9847   79.4541   80.1206 H        1 UNK          0.0000
   26 H        92.1893   77.8524   79.8837 H        1 UNK          0.0000
   27 O        93.6026   75.6729   70.1112 O.3      1 UNK          0.0000
   28 H        93.5179   76.0727   69.2258 H        1 UNK          0.0000
   29 O        92.5691   80.1262   71.0186 O.3      1 UNK          0.0000
   30 H        92.4446   80.7636   71.7496 H        1 UNK          0.0000
   31 C        93.2556   75.4170   75.1721 C.3      1 UNK          0.0000
   32 H        93.0180   75.3218   76.2391 H        1 UNK          0.0000
   33 H        92.4506   74.8817   74.6491 H        1 UNK          0.0000
   34 C        94.5540   74.6182   74.8578 C.3      1 UNK          0.0000
   35 O        95.7086   75.2668   74.6332 O.3      1 UNK          0.0000
   36 H        95.5830   75.9690   73.9670 H        1 UNK          0.0000
   37 C        94.5947   73.0654   74.8714 C.3      1 UNK          0.0000
   38 H        93.6084   72.6381   75.1303 H        1 UNK          0.0000
   39 O        94.9950   72.6216   73.5531 O.3      1 UNK          0.0000
   40 H        95.0451   71.6483   73.4774 H        1 UNK          0.0000
   41 C        95.5168   72.5167   75.9766 C.3      1 UNK          0.0000
   42 C        95.9098   73.3365   77.2232 C.3      1 UNK          0.0000
   43 H        96.1048   72.6637   78.0748 H        1 UNK          0.0000
   44 H        96.7765   73.9870   77.0458 H        1 UNK          0.0000
   45 O        94.8159   74.1567   77.6127 O.3      1 UNK          0.0000
   46 O        95.8440   71.2226   75.9069 O.3      1 UNK          0.0000
   47 H        96.6795   71.0450   76.3816 H        1 UNK          0.0000
   48 P        93.7377   73.3974   78.4873 P.3      1 UNK          0.0000
   49 O        93.1839   72.1958   77.5605 O.3      1 UNK          0.0000
   50 H        92.4464   71.7306   77.9910 H        1 UNK          0.0000
   51 O        92.5770   74.4366   78.7989 O.3      1 UNK          0.0000
   52 H        91.9648   74.0229   79.4283 H        1 UNK          0.0000
   53 O        94.5691   72.9216   79.7784 O.3      1 UNK          0.0000
   54 H        94.4666   73.5457   80.5057 H        1 UNK          0.0000
@<TRIPOS>BOND
     1     1     2   2 
     2     1     8   1 
     3     1    19   1 
     4     2     3   1 
     5     2    23   1 
     6     3     4   1 
     7     3     5   1 
     8     3     6   1 
     9     6     7   ar
    10     6    11   ar
    11     7     8   1 
    12     7    14   ar
    13     8     9   1 
    14     8    10   1 
    15    11    12   ar
    16    11    31   1 
    17    12    13   ar
    18    12    15   ar
    19    13    14   ar
    20    13    18   ar
    21    15    16   ar
    22    16    17   ar
    23    16    27   1 
    24    17    18   ar
    25    18    29   1 
    26    19    20   1 
    27    19    21   1 
    28    19    22   1 
    29    23    24   1 
    30    23    25   1 
    31    23    26   1 
    32    27    28   1 
    33    29    30   1 
    34    31    32   1 
    35    31    33   1 
    36    31    34   1 
    37    34    35   1 
    38    34    37   1 
    39    35    36   1 
    40    37    38   1 
    41    37    39   1 
    42    37    41   1 
    43    39    40   1 
    44    41    42   1 
    45    41    46   1 
    46    42    43   1 
    47    42    44   1 
    48    42    45   1 
    49    45    48   1 
    50    46    47   1 
    51    48    49   1 
    52    48    51   1 
    53    48    53   1 
    54    49    50   1 
    55    51    52   1 
    56    53    54   1 
#MOLECULE END
 
#  inp11.mol2              4    of   10
#                 SCORE =  -277.8685
#              dG-SCORE =    -6.1098
#     LIGAND_EFFICIENCY =    -0.8964
# NUMBER_OF_HEAVY_ATOMS =         31
#                   ASA =  -216.1915
#                   ELE =     0.0000
#                   HYD =   -61.6770
#                   VDW =     0.0000
#                  RMSD =    33.9299
@<TRIPOS>MOLECULE
inp11.mol2                                                                      
   54   56    0    0    0
SMALL       
GASTEIGER      
 
@<TRIPOS>ATOM
    1 C        86.1579   82.7428   70.2156 C.2      1 UNK          0.0000
    2 C        86.3639   83.5753   71.2530 C.2      1 UNK          0.0000
    3 C        87.2296   83.2105   72.4486 C.3      1 UNK          0.0000
    4 H        87.9509   84.0204   72.6125 H        1 UNK          0.0000
    5 H        86.5802   83.1898   73.3338 H        1 UNK          0.0000
    6 C        87.9894   81.8823   72.3351 C.ar     1 UNK          0.0000
    7 C        87.7673   81.0253   71.2377 C.ar     1 UNK          0.0000
    8 C        86.7729   81.3557   70.1331 C.3      1 UNK          0.0000
    9 H        85.9700   80.6060   70.1292 H        1 UNK          0.0000
   10 H        87.2729   81.2518   69.1598 H        1 UNK          0.0000
   11 N        88.9320   81.4972   73.3310 N.ar     1 UNK          0.0000
   12 C        89.6521   80.2917   73.1324 C.ar     1 UNK          0.0000
   13 C        89.3483   79.4950   71.9870 C.ar     1 UNK          0.0000
   14 N        88.4244   79.8660   71.0826 N.ar     1 UNK          0.0000
   15 N        90.6112   79.8857   73.9915 N.ar     1 UNK          0.0000
   16 C        91.2479   78.7289   73.7469 C.ar     1 UNK          0.0000
   17 N        91.0285   77.9128   72.7097 N.ar     1 UNK          0.0000
   18 C        90.0819   78.2918   71.8325 C.ar     1 UNK          0.0000
   19 C        85.2468   83.0358   69.0251 C.3      1 UNK          0.0000
   20 H        84.6445   82.1539   68.7710 H        1 UNK          0.0000
   21 H        84.5303   83.8441   69.2087 H        1 UNK          0.0000
   22 H        85.8350   83.2881   68.1329 H        1 UNK          0.0000
   23 C        85.7902   84.9874   71.3635 C.3      1 UNK          0.0000
   24 H        86.5565   85.6972   71.7024 H        1 UNK          0.0000
   25 H        85.4178   85.3829   70.4123 H        1 UNK          0.0000
   26 H        84.9732   85.0213   72.0944 H        1 UNK          0.0000
   27 O        92.2107   78.3743   74.6324 O.3      1 UNK          0.0000
   28 H        92.5716   77.5072   74.3629 H        1 UNK          0.0000
   29 O        89.8708   77.4641   70.7690 O.3      1 UNK          0.0000
   30 H        89.1573   77.8092   70.2005 H        1 UNK          0.0000
   31 C        89.1174   82.2445   74.6337 C.3      1 UNK          0.0000
   32 H        88.2985   82.9642   74.7559 H        1 UNK          0.0000
   33 H        88.9904   81.5152   75.4478 H        1 UNK          0.0000
   34 C        90.4800   82.9874   74.8080 C.3      1 UNK          0.0000
   35 O        91.2066   83.2336   73.7020 O.3      1 UNK          0.0000
   36 H        91.7968   82.4808   73.4954 H        1 UNK          0.0000
   37 C        91.0393   83.5371   76.1586 C.3      1 UNK          0.0000
   38 H        90.2392   83.6634   76.9096 H        1 UNK          0.0000
   39 O        92.0173   82.5917   76.6571 O.3      1 UNK          0.0000
   40 H        92.6683   83.0054   77.2698 H        1 UNK          0.0000
   41 C        91.6759   84.9389   76.0197 C.3      1 UNK          0.0000
   42 C        90.9261   86.0703   75.3027 C.3      1 UNK          0.0000
   43 H        90.9143   86.9874   75.9132 H        1 UNK          0.0000
   44 H        91.4398   86.3160   74.3622 H        1 UNK          0.0000
   45 O        89.5811   85.6321   75.0190 O.3      1 UNK          0.0000
   46 O        92.5095   85.2942   77.0098 O.3      1 UNK          0.0000
   47 H        92.9045   86.1725   76.8284 H        1 UNK          0.0000
   48 P        88.3572   86.0073   75.9987 P.3      1 UNK          0.0000
   49 O        88.7024   85.4084   77.4486 O.3      1 UNK          0.0000
   50 H        88.0348   85.7346   78.0874 H        1 UNK          0.0000
   51 O        87.0433   85.2824   75.4339 O.3      1 UNK          0.0000
   52 H        86.2555   85.6047   75.9138 H        1 UNK          0.0000
   53 O        88.1721   87.5957   76.0597 O.3      1 UNK          0.0000
   54 H        87.8793   87.9527   75.2002 H        1 UNK          0.0000
@<TRIPOS>BOND
     1     1     2   2 
     2     1     8   1 
     3     1    19   1 
     4     2     3   1 
     5     2    23   1 
     6     3     4   1 
     7     3     5   1 
     8     3     6   1 
     9     6     7   ar
    10     6    11   ar
    11     7     8   1 
    12     7    14   ar
    13     8     9   1 
    14     8    10   1 
    15    11    12   ar
    16    11    31   1 
    17    12    13   ar
    18    12    15   ar
    19    13    14   ar
    20    13    18   ar
    21    15    16   ar
    22    16    17   ar
    23    16    27   1 
    24    17    18   ar
    25    18    29   1 
    26    19    20   1 
    27    19    21   1 
    28    19    22   1 
    29    23    24   1 
    30    23    25   1 
    31    23    26   1 
    32    27    28   1 
    33    29    30   1 
    34    31    32   1 
    35    31    33   1 
    36    31    34   1 
    37    34    35   1 
    38    34    37   1 
    39    35    36   1 
    40    37    38   1 
    41    37    39   1 
    42    37    41   1 
    43    39    40   1 
    44    41    42   1 
    45    41    46   1 
    46    42    43   1 
    47    42    44   1 
    48    42    45   1 
    49    45    48   1 
    50    46    47   1 
    51    48    49   1 
    52    48    51   1 
    53    48    53   1 
    54    49    50   1 
    55    51    52   1 
    56    53    54   1 
#MOLECULE END
 
#  inp11.mol2              5    of   10
#                 SCORE =  -295.3198
#              dG-SCORE =    -6.1218
#     LIGAND_EFFICIENCY =    -0.9526
# NUMBER_OF_HEAVY_ATOMS =         31
#                   ASA =  -241.1014
#                   ELE =     0.0000
#                   HYD =   -46.1427
#                   VDW =    -8.0758
#                  RMSD =    30.4747
@<TRIPOS>MOLECULE
inp11.mol2                                                                      
   54   56    0    0    0
SMALL       
GASTEIGER      
 
@<TRIPOS>ATOM
    1 C        93.1435   81.2666   79.3947 C.2      1 UNK          0.0000
    2 C        93.4949   79.9635   79.4706 C.2      1 UNK          0.0000
    3 C        93.0663   78.8777   78.4726 C.3      1 UNK          0.0000
    4 H        93.9658   78.2918   78.2389 H        1 UNK          0.0000
    5 H        92.3812   78.1822   78.9766 H        1 UNK          0.0000
    6 C        92.4750   79.4308   77.1889 C.ar     1 UNK          0.0000
    7 C        92.1417   80.8348   77.0598 C.ar     1 UNK          0.0000
    8 C        92.3410   81.8212   78.2310 C.3      1 UNK          0.0000
    9 H        91.3435   82.1558   78.5130 H        1 UNK          0.0000
   10 H        92.8513   82.7134   77.8493 H        1 UNK          0.0000
   11 N        92.2586   78.5656   76.0249 N.ar     1 UNK          0.0000
   12 C        91.7729   79.1862   74.8150 C.ar     1 UNK          0.0000
   13 C        91.4312   80.6280   74.8207 C.ar     1 UNK          0.0000
   14 N        91.6450   81.3997   75.9508 N.ar     1 UNK          0.0000
   15 N        91.6003   78.4929   73.6120 N.ar     1 UNK          0.0000
   16 C        91.0310   79.1165   72.5393 C.ar     1 UNK          0.0000
   17 N        90.6416   80.4285   72.4950 N.ar     1 UNK          0.0000
   18 C        90.8661   81.1971   73.6286 C.ar     1 UNK          0.0000
   19 C        93.6468   82.3416   80.3754 C.3      1 UNK          0.0000
   20 H        92.8476   83.0125   80.6584 H        1 UNK          0.0000
   21 H        94.0267   81.9405   81.3073 H        1 UNK          0.0000
   22 H        94.4412   82.9472   79.9381 H        1 UNK          0.0000
   23 C        94.4703   79.3682   80.4051 C.3      1 UNK          0.0000
   24 H        95.2182   78.8162   79.8394 H        1 UNK          0.0000
   25 H        95.0118   80.0994   81.0185 H        1 UNK          0.0000
   26 H        93.9696   78.6444   81.0541 H        1 UNK          0.0000
   27 O        90.8506   78.3518   71.4274 O.3      1 UNK          0.0000
   28 H        90.5006   78.9197   70.7148 H        1 UNK          0.0000
   29 O        90.5227   82.5154   73.5329 O.3      1 UNK          0.0000
   30 H        90.7699   82.9844   74.3549 H        1 UNK          0.0000
   31 C        92.5357   77.0817   76.1383 C.3      1 UNK          0.0000
   32 H        92.6938   76.8009   77.1831 H        1 UNK          0.0000
   33 H        91.5918   76.6053   75.8708 H        1 UNK          0.0000
   34 C        93.6904   76.4962   75.2510 C.3      1 UNK          0.0000
   35 O        94.6483   77.3461   74.8419 O.3      1 UNK          0.0000
   36 H        94.3769   77.7795   74.0068 H        1 UNK          0.0000
   37 C        93.8008   75.0229   74.7331 C.3      1 UNK          0.0000
   38 H        93.0988   74.3522   75.2494 H        1 UNK          0.0000
   39 O        93.4700   75.0957   73.3320 O.3      1 UNK          0.0000
   40 H        93.6257   74.2426   72.8770 H        1 UNK          0.0000
   41 C        95.1659   74.3109   74.9735 C.3      1 UNK          0.0000
   42 C        96.0303   74.5982   76.2086 C.3      1 UNK          0.0000
   43 H        96.6200   73.7254   76.4926 H        1 UNK          0.0000
   44 H        96.7375   75.4165   75.9989 H        1 UNK          0.0000
   45 O        95.1479   74.9526   77.2867 O.3      1 UNK          0.0000
   46 O        95.5635   73.3433   74.1271 O.3      1 UNK          0.0000
   47 H        96.4566   73.0285   74.3648 H        1 UNK          0.0000
   48 P        94.2565   73.8887   78.1228 P.3      1 UNK          0.0000
   49 O        93.4712   72.8864   77.1701 O.3      1 UNK          0.0000
   50 H        92.8811   72.3717   77.7581 H        1 UNK          0.0000
   51 O        93.0941   74.7402   78.8243 O.3      1 UNK          0.0000
   52 H        92.7373   74.2485   79.5838 H        1 UNK          0.0000
   53 O        95.2000   73.0270   79.1012 O.3      1 UNK          0.0000
   54 H        95.8456   73.5790   79.5821 H        1 UNK          0.0000
@<TRIPOS>BOND
     1     1     2   2 
     2     1     8   1 
     3     1    19   1 
     4     2     3   1 
     5     2    23   1 
     6     3     4   1 
     7     3     5   1 
     8     3     6   1 
     9     6     7   ar
    10     6    11   ar
    11     7     8   1 
    12     7    14   ar
    13     8     9   1 
    14     8    10   1 
    15    11    12   ar
    16    11    31   1 
    17    12    13   ar
    18    12    15   ar
    19    13    14   ar
    20    13    18   ar
    21    15    16   ar
    22    16    17   ar
    23    16    27   1 
    24    17    18   ar
    25    18    29   1 
    26    19    20   1 
    27    19    21   1 
    28    19    22   1 
    29    23    24   1 
    30    23    25   1 
    31    23    26   1 
    32    27    28   1 
    33    29    30   1 
    34    31    32   1 
    35    31    33   1 
    36    31    34   1 
    37    34    35   1 
    38    34    37   1 
    39    35    36   1 
    40    37    38   1 
    41    37    39   1 
    42    37    41   1 
    43    39    40   1 
    44    41    42   1 
    45    41    46   1 
    46    42    43   1 
    47    42    44   1 
    48    42    45   1 
    49    45    48   1 
    50    46    47   1 
    51    48    49   1 
    52    48    51   1 
    53    48    53   1 
    54    49    50   1 
    55    51    52   1 
    56    53    54   1 
#MOLECULE END
 
#  inp11.mol2              6    of   10
#                 SCORE =  -281.8015
#              dG-SCORE =    -7.1820
#     LIGAND_EFFICIENCY =    -0.9090
# NUMBER_OF_HEAVY_ATOMS =         31
#                   ASA =  -155.0517
#                   ELE =     0.0000
#                   HYD =  -126.7498
#                   VDW =     0.0000
#                  RMSD =    30.9795
@<TRIPOS>MOLECULE
inp11.mol2                                                                      
   54   56    0    0    0
SMALL       
GASTEIGER      
 
@<TRIPOS>ATOM
    1 C        94.1738   72.7020   75.9378 C.2      1 UNK          0.0000
    2 C        93.5386   73.8792   75.7882 C.2      1 UNK          0.0000
    3 C        93.8620   74.8590   74.6713 C.3      1 UNK          0.0000
    4 H        92.9254   75.1334   74.1708 H        1 UNK          0.0000
    5 H        94.2455   75.7768   75.1364 H        1 UNK          0.0000
    6 C        94.8603   74.3577   73.6195 C.ar     1 UNK          0.0000
    7 C        95.5114   73.1184   73.7878 C.ar     1 UNK          0.0000
    8 C        95.2757   72.2319   75.0030 C.3      1 UNK          0.0000
    9 H        96.2114   72.1346   75.5703 H        1 UNK          0.0000
   10 H        95.0352   71.2150   74.6619 H        1 UNK          0.0000
   11 N        95.1410   75.1317   72.4573 N.ar     1 UNK          0.0000
   12 C        96.0194   74.5812   71.4895 C.ar     1 UNK          0.0000
   13 C        96.6284   73.3182   71.7592 C.ar     1 UNK          0.0000
   14 N        96.3735   72.6273   72.8848 N.ar     1 UNK          0.0000
   15 N        96.2878   75.2164   70.3288 N.ar     1 UNK          0.0000
   16 C        97.1360   74.6416   69.4606 C.ar     1 UNK          0.0000
   17 N        97.7598   73.4697   69.6272 N.ar     1 UNK          0.0000
   18 C        97.5094   72.8095   70.7719 C.ar     1 UNK          0.0000
   19 C        93.9318   71.7150   77.0782 C.3      1 UNK          0.0000
   20 H        94.8833   71.3242   77.4616 H        1 UNK          0.0000
   21 H        93.4211   72.1571   77.9408 H        1 UNK          0.0000
   22 H        93.3481   70.8513   76.7332 H        1 UNK          0.0000
   23 C        92.4067   74.3782   76.6856 C.3      1 UNK          0.0000
   24 H        91.5850   74.7934   76.0872 H        1 UNK          0.0000
   25 H        91.9584   73.5907   77.3011 H        1 UNK          0.0000
   26 H        92.7578   75.1770   77.3500 H        1 UNK          0.0000
   27 O        97.3604   75.3140   68.3055 O.3      1 UNK          0.0000
   28 H        98.0132   74.8119   67.7797 H        1 UNK          0.0000
   29 O        98.1364   71.6087   70.9319 O.3      1 UNK          0.0000
   30 H        97.9103   71.2146   71.7949 H        1 UNK          0.0000
   31 C        94.6438   76.5473   72.2609 C.3      1 UNK          0.0000
   32 H        94.2339   76.9199   73.2079 H        1 UNK          0.0000
   33 H        95.5236   77.1754   72.0554 H        1 UNK          0.0000
   34 C        93.5843   76.7496   71.1315 C.3      1 UNK          0.0000
   35 O        92.9238   75.6637   70.6888 O.3      1 UNK          0.0000
   36 H        93.4149   75.2255   69.9646 H        1 UNK          0.0000
   37 C        93.1721   78.1263   70.5200 C.3      1 UNK          0.0000
   38 H        93.4356   78.9646   71.1893 H        1 UNK          0.0000
   39 O        93.8688   78.2840   69.2597 O.3      1 UNK          0.0000
   40 H        93.4118   78.9061   68.6477 H        1 UNK          0.0000
   41 C        91.6467   78.2564   70.3055 C.3      1 UNK          0.0000
   42 C        90.6661   77.9078   71.4341 C.3      1 UNK          0.0000
   43 H        89.9315   78.7149   71.5845 H        1 UNK          0.0000
   44 H        90.1009   77.0036   71.1661 H        1 UNK          0.0000
   45 O        91.4138   77.6696   72.6447 O.3      1 UNK          0.0000
   46 O        91.2652   79.2105   69.4421 O.3      1 UNK          0.0000
   47 H        90.2920   79.2011   69.3271 H        1 UNK          0.0000
   48 P        91.6135   78.8316   73.7442 P.3      1 UNK          0.0000
   49 O        92.3582   80.0558   73.0185 O.3      1 UNK          0.0000
   50 H        92.3740   80.8191   73.6327 H        1 UNK          0.0000
   51 O        92.5651   78.2511   74.8968 O.3      1 UNK          0.0000
   52 H        92.5883   78.8724   75.6506 H        1 UNK          0.0000
   53 O        90.1933   79.2838   74.3266 O.3      1 UNK          0.0000
   54 H        89.7757   78.5677   74.8411 H        1 UNK          0.0000
@<TRIPOS>BOND
     1     1     2   2 
     2     1     8   1 
     3     1    19   1 
     4     2     3   1 
     5     2    23   1 
     6     3     4   1 
     7     3     5   1 
     8     3     6   1 
     9     6     7   ar
    10     6    11   ar
    11     7     8   1 
    12     7    14   ar
    13     8     9   1 
    14     8    10   1 
    15    11    12   ar
    16    11    31   1 
    17    12    13   ar
    18    12    15   ar
    19    13    14   ar
    20    13    18   ar
    21    15    16   ar
    22    16    17   ar
    23    16    27   1 
    24    17    18   ar
    25    18    29   1 
    26    19    20   1 
    27    19    21   1 
    28    19    22   1 
    29    23    24   1 
    30    23    25   1 
    31    23    26   1 
    32    27    28   1 
    33    29    30   1 
    34    31    32   1 
    35    31    33   1 
    36    31    34   1 
    37    34    35   1 
    38    34    37   1 
    39    35    36   1 
    40    37    38   1 
    41    37    39   1 
    42    37    41   1 
    43    39    40   1 
    44    41    42   1 
    45    41    46   1 
    46    42    43   1 
    47    42    44   1 
    48    42    45   1 
    49    45    48   1 
    50    46    47   1 
    51    48    49   1 
    52    48    51   1 
    53    48    53   1 
    54    49    50   1 
    55    51    52   1 
    56    53    54   1 
#MOLECULE END
 
#  inp11.mol2              7    of   10
#                 SCORE =  -294.2870
#              dG-SCORE =    -6.9076
#     LIGAND_EFFICIENCY =    -0.9493
# NUMBER_OF_HEAVY_ATOMS =         31
#                   ASA =  -207.6976
#                   ELE =     0.0000
#                   HYD =   -86.5895
#                   VDW =     0.0000
#                  RMSD =    31.9877
@<TRIPOS>MOLECULE
inp11.mol2                                                                      
   54   56    0    0    0
SMALL       
GASTEIGER      
 
@<TRIPOS>ATOM
    1 C        89.3421   82.3069   74.7471 C.2      1 UNK          0.0000
    2 C        90.0804   82.1820   75.8656 C.2      1 UNK          0.0000
    3 C        91.0449   81.0297   76.0970 C.3      1 UNK          0.0000
    4 H        92.0164   81.4461   76.3900 H        1 UNK          0.0000
    5 H        90.6787   80.4594   76.9611 H        1 UNK          0.0000
    6 C        91.2471   80.0858   74.9043 C.ar     1 UNK          0.0000
    7 C        90.4705   80.2354   73.7369 C.ar     1 UNK          0.0000
    8 C        89.4012   81.3107   73.6011 C.3      1 UNK          0.0000
    9 H        88.4178   80.8346   73.4875 H        1 UNK          0.0000
   10 H        89.5670   81.8630   72.6654 H        1 UNK          0.0000
   11 N        92.2229   79.0495   74.9551 N.ar     1 UNK          0.0000
   12 C        92.4093   78.2560   73.7946 C.ar     1 UNK          0.0000
   13 C        91.5673   78.4887   72.6652 C.ar     1 UNK          0.0000
   14 N        90.6271   79.4505   72.6603 N.ar     1 UNK          0.0000
   15 N        93.3577   77.2971   73.7328 N.ar     1 UNK          0.0000
   16 C        93.4737   76.5769   72.6053 C.ar     1 UNK          0.0000
   17 N        92.7290   76.7147   71.5023 N.ar     1 UNK          0.0000
   18 C        91.7781   77.6655   71.5304 C.ar     1 UNK          0.0000
   19 C        88.3131   83.4074   74.4953 C.3      1 UNK          0.0000
   20 H        87.4014   82.9912   74.0476 H        1 UNK          0.0000
   21 H        87.9900   83.9235   75.4061 H        1 UNK          0.0000
   22 H        88.7017   84.1549   73.7909 H        1 UNK          0.0000
   23 C        90.0743   83.1738   77.0282 C.3      1 UNK          0.0000
   24 H        91.0971   83.3944   77.3615 H        1 UNK          0.0000
   25 H        89.6288   84.1416   76.7739 H        1 UNK          0.0000
   26 H        89.5357   82.7622   77.8903 H        1 UNK          0.0000
   27 O        94.4498   75.6369   72.5907 O.3      1 UNK          0.0000
   28 H        94.4094   75.1654   71.7359 H        1 UNK          0.0000
   29 O        91.0302   77.8123   70.3991 O.3      1 UNK          0.0000
   30 H        90.3576   78.5083   70.5190 H        1 UNK          0.0000
   31 C        92.9815   78.6827   76.2120 C.3      1 UNK          0.0000
   32 H        92.5196   79.1848   77.0711 H        1 UNK          0.0000
   33 H        92.8262   77.6069   76.3832 H        1 UNK          0.0000
   34 C        94.5122   78.9927   76.2020 C.3      1 UNK          0.0000
   35 O        94.9687   79.8712   75.2902 O.3      1 UNK          0.0000
   36 H        95.1908   79.4212   74.4501 H        1 UNK          0.0000
   37 C        95.5532   78.4202   77.2157 C.3      1 UNK          0.0000
   38 H        95.0667   78.0605   78.1399 H        1 UNK          0.0000
   39 O        96.2411   77.3167   76.5773 O.3      1 UNK          0.0000
   40 H        97.1286   77.1444   76.9683 H        1 UNK          0.0000
   41 C        96.5732   79.4795   77.6927 C.3      1 UNK          0.0000
   42 C        96.0990   80.8494   78.1977 C.3      1 UNK          0.0000
   43 H        96.5597   81.0956   79.1678 H        1 UNK          0.0000
   44 H        96.4055   81.6311   77.4879 H        1 UNK          0.0000
   45 O        94.6606   80.8336   78.3082 O.3      1 UNK          0.0000
   46 O        97.7027   78.9917   78.2290 O.3      1 UNK          0.0000
   47 H        98.3139   79.7204   78.4652 H        1 UNK          0.0000
   48 P        93.9352   80.5307   79.7157 P.3      1 UNK          0.0000
   49 O        94.4147   79.0760   80.1992 O.3      1 UNK          0.0000
   50 H        94.0876   78.9272   81.1108 H        1 UNK          0.0000
   51 O        92.3543   80.4976   79.4500 O.3      1 UNK          0.0000
   52 H        91.8764   80.4644   80.3015 H        1 UNK          0.0000
   53 O        94.3280   81.6532   80.7864 O.3      1 UNK          0.0000
   54 H        93.9648   82.5240   80.5381 H        1 UNK          0.0000
@<TRIPOS>BOND
     1     1     2   2 
     2     1     8   1 
     3     1    19   1 
     4     2     3   1 
     5     2    23   1 
     6     3     4   1 
     7     3     5   1 
     8     3     6   1 
     9     6     7   ar
    10     6    11   ar
    11     7     8   1 
    12     7    14   ar
    13     8     9   1 
    14     8    10   1 
    15    11    12   ar
    16    11    31   1 
    17    12    13   ar
    18    12    15   ar
    19    13    14   ar
    20    13    18   ar
    21    15    16   ar
    22    16    17   ar
    23    16    27   1 
    24    17    18   ar
    25    18    29   1 
    26    19    20   1 
    27    19    21   1 
    28    19    22   1 
    29    23    24   1 
    30    23    25   1 
    31    23    26   1 
    32    27    28   1 
    33    29    30   1 
    34    31    32   1 
    35    31    33   1 
    36    31    34   1 
    37    34    35   1 
    38    34    37   1 
    39    35    36   1 
    40    37    38   1 
    41    37    39   1 
    42    37    41   1 
    43    39    40   1 
    44    41    42   1 
    45    41    46   1 
    46    42    43   1 
    47    42    44   1 
    48    42    45   1 
    49    45    48   1 
    50    46    47   1 
    51    48    49   1 
    52    48    51   1 
    53    48    53   1 
    54    49    50   1 
    55    51    52   1 
    56    53    54   1 
#MOLECULE END
 
#  inp11.mol2              8    of   10
#                 SCORE =  -293.0794
#              dG-SCORE =    -7.0594
#     LIGAND_EFFICIENCY =    -0.9454
# NUMBER_OF_HEAVY_ATOMS =         31
#                   ASA =  -194.2060
#                   ELE =     0.0000
#                   HYD =   -98.8733
#                   VDW =     0.0000
#                  RMSD =    29.8055
@<TRIPOS>MOLECULE
inp11.mol2                                                                      
   54   56    0    0    0
SMALL       
GASTEIGER      
 
@<TRIPOS>ATOM
    1 C        91.2279   78.5877   72.1931 C.2      1 UNK          0.0000
    2 C        91.9294   77.4402   72.2447 C.2      1 UNK          0.0000
    3 C        92.8611   77.0899   73.3941 C.3      1 UNK          0.0000
    4 H        92.6059   76.0847   73.7513 H        1 UNK          0.0000
    5 H        93.8791   77.0253   72.9875 H        1 UNK          0.0000
    6 C        92.8408   78.0607   74.5821 C.ar     1 UNK          0.0000
    7 C        92.0943   79.2550   74.5145 C.ar     1 UNK          0.0000
    8 C        91.2934   79.6472   73.2804 C.3      1 UNK          0.0000
    9 H        91.7068   80.5724   72.8564 H        1 UNK          0.0000
   10 H        90.2681   79.8995   73.5855 H        1 UNK          0.0000
   11 N        93.5696   77.7696   75.7707 N.ar     1 UNK          0.0000
   12 C        93.4536   78.6724   76.8582 C.ar     1 UNK          0.0000
   13 C        92.6730   79.8553   76.6841 C.ar     1 UNK          0.0000
   14 N        92.0265   80.1227   75.5353 N.ar     1 UNK          0.0000
   15 N        94.0558   78.4397   78.0439 N.ar     1 UNK          0.0000
   16 C        93.9109   79.3414   79.0285 C.ar     1 UNK          0.0000
   17 N        93.2096   80.4786   78.9584 N.ar     1 UNK          0.0000
   18 C        92.5933   80.7372   77.7912 C.ar     1 UNK          0.0000
   19 C        90.3314   79.0146   71.0323 C.3      1 UNK          0.0000
   20 H        90.4844   80.0751   70.7934 H        1 UNK          0.0000
   21 H        90.5258   78.4679   70.1030 H        1 UNK          0.0000
   22 H        89.2708   78.8958   71.2906 H        1 UNK          0.0000
   23 C        91.8716   76.3359   71.1898 C.3      1 UNK          0.0000
   24 H        91.7882   75.3473   71.6604 H        1 UNK          0.0000
   25 H        91.0107   76.4193   70.5176 H        1 UNK          0.0000
   26 H        92.7842   76.3279   70.5818 H        1 UNK          0.0000
   27 O        94.5243   79.0531   80.2021 O.3      1 UNK          0.0000
   28 H        94.3709   79.7949   80.8192 H        1 UNK          0.0000
   29 O        91.8679   81.8907   77.7282 O.3      1 UNK          0.0000
   30 H        91.4750   82.0023   76.8424 H        1 UNK          0.0000
   31 C        94.5426   76.6167   75.8882 C.3      1 UNK          0.0000
   32 H        94.7319   76.2019   74.8903 H        1 UNK          0.0000
   33 H        95.5049   77.0358   76.2185 H        1 UNK          0.0000
   34 C        94.1206   75.4607   76.8497 C.3      1 UNK          0.0000
   35 O        92.8224   75.3732   77.1941 O.3      1 UNK          0.0000
   36 H        92.6314   75.9190   77.9836 H        1 UNK          0.0000
   37 C        95.0724   74.3468   77.3904 C.3      1 UNK          0.0000
   38 H        95.9769   74.2447   76.7645 H        1 UNK          0.0000
   39 O        95.4624   74.7056   78.7387 O.3      1 UNK          0.0000
   40 H        95.7365   73.9263   79.2754 H        1 UNK          0.0000
   41 C        94.4235   72.9438   77.3789 C.3      1 UNK          0.0000
   42 C        93.7193   72.4185   76.1200 C.3      1 UNK          0.0000
   43 H        94.0715   71.4072   75.8614 H        1 UNK          0.0000
   44 H        92.6380   72.3455   76.3049 H        1 UNK          0.0000
   45 O        93.9632   73.3347   75.0325 O.3      1 UNK          0.0000
   46 O        95.0055   72.0329   78.1745 O.3      1 UNK          0.0000
   47 H        94.5127   71.1862   78.1458 H        1 UNK          0.0000
   48 P        95.1477   73.0729   73.9708 P.3      1 UNK          0.0000
   49 O        96.5255   73.0142   74.7942 O.3      1 UNK          0.0000
   50 H        97.2396   72.7291   74.1868 H        1 UNK          0.0000
   51 O        95.1898   74.3262   72.9716 O.3      1 UNK          0.0000
   52 H        95.7939   74.1358   72.2276 H        1 UNK          0.0000
   53 O        94.8860   71.7034   73.1855 O.3      1 UNK          0.0000
   54 H        94.0952   71.7649   72.6175 H        1 UNK          0.0000
@<TRIPOS>BOND
     1     1     2   2 
     2     1     8   1 
     3     1    19   1 
     4     2     3   1 
     5     2    23   1 
     6     3     4   1 
     7     3     5   1 
     8     3     6   1 
     9     6     7   ar
    10     6    11   ar
    11     7     8   1 
    12     7    14   ar
    13     8     9   1 
    14     8    10   1 
    15    11    12   ar
    16    11    31   1 
    17    12    13   ar
    18    12    15   ar
    19    13    14   ar
    20    13    18   ar
    21    15    16   ar
    22    16    17   ar
    23    16    27   1 
    24    17    18   ar
    25    18    29   1 
    26    19    20   1 
    27    19    21   1 
    28    19    22   1 
    29    23    24   1 
    30    23    25   1 
    31    23    26   1 
    32    27    28   1 
    33    29    30   1 
    34    31    32   1 
    35    31    33   1 
    36    31    34   1 
    37    34    35   1 
    38    34    37   1 
    39    35    36   1 
    40    37    38   1 
    41    37    39   1 
    42    37    41   1 
    43    39    40   1 
    44    41    42   1 
    45    41    46   1 
    46    42    43   1 
    47    42    44   1 
    48    42    45   1 
    49    45    48   1 
    50    46    47   1 
    51    48    49   1 
    52    48    51   1 
    53    48    53   1 
    54    49    50   1 
    55    51    52   1 
    56    53    54   1 
#MOLECULE END
 
#  inp11.mol2              9    of   10
#                 SCORE =  -293.0144
#              dG-SCORE =    -7.1902
#     LIGAND_EFFICIENCY =    -0.9452
# NUMBER_OF_HEAVY_ATOMS =         31
#                   ASA =  -185.2525
#                   ELE =     0.0000
#                   HYD =  -107.7619
#                   VDW =     0.0000
#                  RMSD =    29.6783
@<TRIPOS>MOLECULE
inp11.mol2                                                                      
   54   56    0    0    0
SMALL       
GASTEIGER      
 
@<TRIPOS>ATOM
    1 C        92.4447   80.1321   77.5884 C.2      1 UNK          0.0000
    2 C        92.6386   78.8868   78.0610 C.2      1 UNK          0.0000
    3 C        92.7238   77.6637   77.1618 C.3      1 UNK          0.0000
    4 H        93.6320   77.1065   77.4220 H        1 UNK          0.0000
    5 H        91.8772   77.0100   77.4104 H        1 UNK          0.0000
    6 C        92.7295   77.9493   75.6543 C.ar     1 UNK          0.0000
    7 C        92.5326   79.2612   75.1763 C.ar     1 UNK          0.0000
    8 C        92.2953   80.4415   76.1082 C.3      1 UNK          0.0000
    9 H        91.2934   80.8539   75.9265 H        1 UNK          0.0000
   10 H        92.9941   81.2488   75.8471 H        1 UNK          0.0000
   11 N        92.9381   76.8979   74.7164 N.ar     1 UNK          0.0000
   12 C        93.0020   77.2383   73.3411 C.ar     1 UNK          0.0000
   13 C        92.7863   78.5982   72.9630 C.ar     1 UNK          0.0000
   14 N        92.5529   79.5640   73.8696 N.ar     1 UNK          0.0000
   15 N        93.2629   76.3155   72.3908 N.ar     1 UNK          0.0000
   16 C        93.3003   76.7057   71.1064 C.ar     1 UNK          0.0000
   17 N        93.1036   77.9497   70.6549 N.ar     1 UNK          0.0000
   18 C        92.8462   78.8936   71.5777 C.ar     1 UNK          0.0000
   19 C        92.2867   81.3819   78.4525 C.3      1 UNK          0.0000
   20 H        91.4711   82.0131   78.0764 H        1 UNK          0.0000
   21 H        92.0392   81.1651   79.4975 H        1 UNK          0.0000
   22 H        93.1989   81.9928   78.4304 H        1 UNK          0.0000
   23 C        92.8230   78.5341   79.5364 C.3      1 UNK          0.0000
   24 H        93.6559   77.8314   79.6711 H        1 UNK          0.0000
   25 H        93.0586   79.3992   80.1657 H        1 UNK          0.0000
   26 H        91.9244   78.0503   79.9380 H        1 UNK          0.0000
   27 O        93.5794   75.7431   70.1941 O.3      1 UNK          0.0000
   28 H        93.5455   76.1446   69.3039 H        1 UNK          0.0000
   29 O        92.6601   80.1631   71.1147 O.3      1 UNK          0.0000
   30 H        92.4614   80.7721   71.8502 H        1 UNK          0.0000
   31 C        92.9790   75.4353   75.1024 C.3      1 UNK          0.0000
   32 H        92.6289   75.3256   76.1363 H        1 UNK          0.0000
   33 H        92.2327   74.9148   74.4836 H        1 UNK          0.0000
   34 C        94.3631   74.7274   74.9544 C.3      1 UNK          0.0000
   35 O        95.4597   75.5037   74.8731 O.3      1 UNK          0.0000
   36 H        95.6415   75.7579   73.9458 H        1 UNK          0.0000
   37 C        94.5898   73.1822   74.9665 C.3      1 UNK          0.0000
   38 H        93.7421   72.6497   75.4335 H        1 UNK          0.0000
   39 O        94.7347   72.7393   73.5948 O.3      1 UNK          0.0000
   40 H        95.2342   71.8936   73.5189 H        1 UNK          0.0000
   41 C        95.8252   72.7622   75.7954 C.3      1 UNK          0.0000
   42 C        96.0308   73.2991   77.2187 C.3      1 UNK          0.0000
   43 H        96.2451   72.4805   77.9243 H        1 UNK          0.0000
   44 H        96.8977   73.9752   77.2369 H        1 UNK          0.0000
   45 O        94.8473   74.0194   77.6211 O.3      1 UNK          0.0000
   46 O        96.3065   71.5372   75.5325 O.3      1 UNK          0.0000
   47 H        97.1114   71.3626   76.0636 H        1 UNK          0.0000
   48 P        93.6992   73.3111   78.5037 P.3      1 UNK          0.0000
   49 O        93.1644   72.0469   77.6696 O.3      1 UNK          0.0000
   50 H        92.5594   71.5298   78.2412 H        1 UNK          0.0000
   51 O        92.5030   74.3642   78.6797 O.3      1 UNK          0.0000
   52 H        91.8573   74.0255   79.3302 H        1 UNK          0.0000
   53 O        94.2969   72.8586   79.9175 O.3      1 UNK          0.0000
   54 H        94.5445   73.6294   80.4619 H        1 UNK          0.0000
@<TRIPOS>BOND
     1     1     2   2 
     2     1     8   1 
     3     1    19   1 
     4     2     3   1 
     5     2    23   1 
     6     3     4   1 
     7     3     5   1 
     8     3     6   1 
     9     6     7   ar
    10     6    11   ar
    11     7     8   1 
    12     7    14   ar
    13     8     9   1 
    14     8    10   1 
    15    11    12   ar
    16    11    31   1 
    17    12    13   ar
    18    12    15   ar
    19    13    14   ar
    20    13    18   ar
    21    15    16   ar
    22    16    17   ar
    23    16    27   1 
    24    17    18   ar
    25    18    29   1 
    26    19    20   1 
    27    19    21   1 
    28    19    22   1 
    29    23    24   1 
    30    23    25   1 
    31    23    26   1 
    32    27    28   1 
    33    29    30   1 
    34    31    32   1 
    35    31    33   1 
    36    31    34   1 
    37    34    35   1 
    38    34    37   1 
    39    35    36   1 
    40    37    38   1 
    41    37    39   1 
    42    37    41   1 
    43    39    40   1 
    44    41    42   1 
    45    41    46   1 
    46    42    43   1 
    47    42    44   1 
    48    42    45   1 
    49    45    48   1 
    50    46    47   1 
    51    48    49   1 
    52    48    51   1 
    53    48    53   1 
    54    49    50   1 
    55    51    52   1 
    56    53    54   1 
#MOLECULE END
 
#  inp11.mol2             10    of   10
#                 SCORE =  -288.0930
#              dG-SCORE =    -5.3005
#     LIGAND_EFFICIENCY =    -0.9293
# NUMBER_OF_HEAVY_ATOMS =         31
#                   ASA =  -276.1974
#                   ELE =     0.0000
#                   HYD =    -3.7559
#                   VDW =    -8.1397
#                  RMSD =    33.7403
@<TRIPOS>MOLECULE
inp11.mol2                                                                      
   54   56    0    0    0
SMALL       
GASTEIGER      
 
@<TRIPOS>ATOM
    1 C        90.0419   79.4343   73.6232 C.2      1 UNK          0.0000
    2 C        91.2538   79.5212   74.2607 C.2      1 UNK          0.0000
    3 C        91.6542   80.7820   75.0607 C.3      1 UNK          0.0000
    4 H        92.0335   80.4540   76.0377 H        1 UNK          0.0000
    5 H        92.5203   81.2181   74.5425 H        1 UNK          0.0000
    6 C        90.5613   81.8371   75.2514 C.ar     1 UNK          0.0000
    7 C        89.2538   81.6837   74.6590 C.ar     1 UNK          0.0000
    8 C        88.9586   80.4946   73.7050 C.3      1 UNK          0.0000
    9 H        88.7635   80.8857   72.6989 H        1 UNK          0.0000
   10 H        88.0262   80.0193   74.0128 H        1 UNK          0.0000
   11 N        90.8050   83.0462   76.0525 N.ar     1 UNK          0.0000
   12 C        89.7065   83.9330   76.3022 C.ar     1 UNK          0.0000
   13 C        88.4243   83.6973   75.6034 C.ar     1 UNK          0.0000
   14 N        88.2314   82.5386   74.8648 N.ar     1 UNK          0.0000
   15 N        89.8173   85.0609   77.1341 N.ar     1 UNK          0.0000
   16 C        88.8015   85.9725   77.1166 C.ar     1 UNK          0.0000
   17 N        87.6781   85.9167   76.3496 N.ar     1 UNK          0.0000
   18 C        87.4399   84.7410   75.6549 C.ar     1 UNK          0.0000
   19 C        89.5505   78.3191   72.6915 C.3      1 UNK          0.0000
   20 H        89.0788   78.7605   71.8106 H        1 UNK          0.0000
   21 H        90.3426   77.6837   72.2924 H        1 UNK          0.0000
   22 H        88.7860   77.7062   73.1871 H        1 UNK          0.0000
   23 C        92.3904   78.5122   74.3084 C.3      1 UNK          0.0000
   24 H        92.7494   78.3657   75.3380 H        1 UNK          0.0000
   25 H        92.1173   77.5199   73.9515 H        1 UNK          0.0000
   26 H        93.2492   78.8479   73.7146 H        1 UNK          0.0000
   27 O        88.9031   87.0359   77.9313 O.3      1 UNK          0.0000
   28 H        88.0585   87.5225   77.8881 H        1 UNK          0.0000
   29 O        86.2435   84.7084   75.0079 O.3      1 UNK          0.0000
   30 H        86.2377   83.9721   74.3671 H        1 UNK          0.0000
   31 C        92.1892   83.3428   76.5800 C.3      1 UNK          0.0000
   32 H        92.9337   82.7811   76.0069 H        1 UNK          0.0000
   33 H        92.4097   84.4091   76.3969 H        1 UNK          0.0000
   34 C        92.3853   83.0008   78.0732 C.3      1 UNK          0.0000
   35 O        91.5758   82.0326   78.5389 O.3      1 UNK          0.0000
   36 H        90.6566   82.3728   78.5798 H        1 UNK          0.0000
   37 C        93.4564   83.6566   78.9991 C.3      1 UNK          0.0000
   38 H        94.3812   83.8883   78.4407 H        1 UNK          0.0000
   39 O        92.9088   84.9171   79.4553 O.3      1 UNK          0.0000
   40 H        93.4956   85.3885   80.0795 H        1 UNK          0.0000
   41 C        93.9398   82.6942   80.1203 C.3      1 UNK          0.0000
   42 C        94.2898   81.2100   79.9069 C.3      1 UNK          0.0000
   43 H        95.2223   80.9371   80.4263 H        1 UNK          0.0000
   44 H        93.4866   80.5897   80.3197 H        1 UNK          0.0000
   45 O        94.3966   80.9017   78.5121 O.3      1 UNK          0.0000
   46 O        94.0841   83.1545   81.3535 O.3      1 UNK          0.0000
   47 H        94.6591   82.5365   81.8535 H        1 UNK          0.0000
   48 P        95.7460   81.1532   77.6750 P.3      1 UNK          0.0000
   49 O        96.3164   82.6279   77.9806 O.3      1 UNK          0.0000
   50 H        97.1051   82.7828   77.4195 H        1 UNK          0.0000
   51 O        95.3032   81.0551   76.1340 O.3      1 UNK          0.0000
   52 H        96.0751   81.1582   75.5457 H        1 UNK          0.0000
   53 O        96.7991   80.0254   78.0884 O.3      1 UNK          0.0000
   54 H        96.4211   79.1416   77.9217 H        1 UNK          0.0000
@<TRIPOS>BOND
     1     1     2   2 
     2     1     8   1 
     3     1    19   1 
     4     2     3   1 
     5     2    23   1 
     6     3     4   1 
     7     3     5   1 
     8     3     6   1 
     9     6     7   ar
    10     6    11   ar
    11     7     8   1 
    12     7    14   ar
    13     8     9   1 
    14     8    10   1 
    15    11    12   ar
    16    11    31   1 
    17    12    13   ar
    18    12    15   ar
    19    13    14   ar
    20    13    18   ar
    21    15    16   ar
    22    16    17   ar
    23    16    27   1 
    24    17    18   ar
    25    18    29   1 
    26    19    20   1 
    27    19    21   1 
    28    19    22   1 
    29    23    24   1 
    30    23    25   1 
    31    23    26   1 
    32    27    28   1 
    33    29    30   1 
    34    31    32   1 
    35    31    33   1 
    36    31    34   1 
    37    34    35   1 
    38    34    37   1 
    39    35    36   1 
    40    37    38   1 
    41    37    39   1 
    42    37    41   1 
    43    39    40   1 
    44    41    42   1 
    45    41    46   1 
    46    42    43   1 
    47    42    44   1 
    48    42    45   1 
    49    45    48   1 
    50    46    47   1 
    51    48    49   1 
    52    48    51   1 
    53    48    53   1 
    54    49    50   1 
    55    51    52   1 
    56    53    54   1 
#MOLECULE END
 
