@<TRIPOS>COMMENT
   inp11.mol2              1    of   10
                  SCORE =  -300.9127
               dG-SCORE =    -7.3102
      LIGAND_EFFICIENCY =    -0.9707
  NUMBER_OF_HEAVY_ATOMS =         31
                    ASA =  -198.8638
                    ELE =     0.0000
                    HYD =  -102.0488
                    VDW =     0.0000
                   RMSD =    29.8008
 MOLECULAR_WEIGHT = 458.36
@<TRIPOS>MOLECULE
inp11.mol2                                                                      
   54   56    0    0    0
SMALL       
GASTEIGER      
 
@<TRIPOS>ATOM
    1 C        91.4805   79.2259   72.3818 C.2      1 UNK          0.0000
    2 C        92.2121   78.1206   72.1480 C.2      1 UNK          0.0000
    3 C        93.0924   77.4712   73.2040 C.3      1 UNK          0.0000
    4 H        92.8489   76.4025   73.2470 H        1 UNK          0.0000
    5 H        94.1318   77.5385   72.8561 H        1 UNK          0.0000
    6 C        92.9812   78.0644   74.6147 C.ar     1 UNK          0.0000
    7 C        92.2041   79.2184   74.8438 C.ar     1 UNK          0.0000
    8 C        91.4576   79.9339   73.7262 C.3      1 UNK          0.0000
    9 H        91.8650   80.9470   73.6059 H        1 UNK          0.0000
   10 H        90.4107   80.0752   74.0295 H        1 UNK          0.0000
   11 N        93.6552   77.4578   75.7131 N.ar     1 UNK          0.0000
   12 C        93.4557   78.0131   77.0027 C.ar     1 UNK          0.0000
   13 C        92.6505   79.1860   77.1246 C.ar     1 UNK          0.0000
   14 N        92.0574   79.7597   76.0624 N.ar     1 UNK          0.0000
   15 N        94.0017   77.4616   78.1074 N.ar     1 UNK          0.0000
   16 C        93.7788   78.0446   79.2965 C.ar     1 UNK          0.0000
   17 N        93.0487   79.1453   79.5097 N.ar     1 UNK          0.0000
   18 C        92.4869   79.7162   78.4292 C.ar     1 UNK          0.0000
   19 C        90.6336   79.9525   71.3386 C.3      1 UNK          0.0000
   20 H        90.7674   81.0391   71.4186 H        1 UNK          0.0000
   21 H        90.8925   79.6948   70.3057 H        1 UNK          0.0000
   22 H        89.5650   79.7507   71.4903 H        1 UNK          0.0000
   23 C        92.2423   77.3605   70.8226 C.3      1 UNK          0.0000
   24 H        92.1638   76.2779   70.9888 H        1 UNK          0.0000
   25 H        91.4157   77.6195   70.1521 H        1 UNK          0.0000
   26 H        93.1853   77.5379   70.2915 H        1 UNK          0.0000
   27 O        94.3383   77.4435   80.3745 O.3      1 UNK          0.0000
   28 H        94.1309   77.9775   81.1661 H        1 UNK          0.0000
   29 O        91.7318   80.8301   78.6524 O.3      1 UNK          0.0000
   30 H        91.3827   81.1832   77.8129 H        1 UNK          0.0000
   31 C        94.6545   76.3324   75.5566 C.3      1 UNK          0.0000
   32 H        94.9080   76.2206   74.4951 H        1 UNK          0.0000
   33 H        95.5854   76.6536   76.0477 H        1 UNK          0.0000
   34 C        94.2173   74.9454   76.1259 C.3      1 UNK          0.0000
   35 O        92.9060   74.7460   76.3548 O.3      1 UNK          0.0000
   36 H        92.6579   75.0425   77.2538 H        1 UNK          0.0000
   37 C        95.1722   73.7368   76.3844 C.3      1 UNK          0.0000
   38 H        96.1107   73.8290   75.8093 H        1 UNK          0.0000
   39 O        95.4803   73.7034   77.7995 O.3      1 UNK          0.0000
   40 H        95.7489   72.8077   78.1092 H        1 UNK          0.0000
   41 C        94.5666   72.3861   75.9389 C.3      1 UNK          0.0000
   42 C        93.9451   72.2303   74.5439 C.3      1 UNK          0.0000
   43 H        94.3403   71.3389   74.0310 H        1 UNK          0.0000
   44 H        92.8582   72.0930   74.6369 H        1 UNK          0.0000
   45 O        94.2182   73.4207   73.7759 O.3      1 UNK          0.0000
   46 O        95.1330   71.2949   76.4772 O.3      1 UNK          0.0000
   47 H        94.6678   70.4846   76.1816 H        1 UNK          0.0000
   48 P        95.4639   73.4873   72.7548 P.3      1 UNK          0.0000
   49 O        96.7979   73.2160   73.6072 O.3      1 UNK          0.0000
   50 H        97.5510   73.1248   72.9868 H        1 UNK          0.0000
   51 O        95.5210   74.9731   72.1547 O.3      1 UNK          0.0000
   52 H        96.1686   75.0100   71.4240 H        1 UNK          0.0000
   53 O        95.2844   72.3936   71.6005 O.3      1 UNK          0.0000
   54 H        94.5229   72.6030   71.0276 H        1 UNK          0.0000
@<TRIPOS>BOND
     1     1     2   2 
     2     1     8   1 
     3     1    19   1 
     4     2     3   1 
     5     2    23   1 
     6     3     4   1 
     7     3     5   1 
     8     3     6   1 
     9     6     7   ar
    10     6    11   ar
    11     7     8   1 
    12     7    14   ar
    13     8     9   1 
    14     8    10   1 
    15    11    12   ar
    16    11    31   1 
    17    12    13   ar
    18    12    15   ar
    19    13    14   ar
    20    13    18   ar
    21    15    16   ar
    22    16    17   ar
    23    16    27   1 
    24    17    18   ar
    25    18    29   1 
    26    19    20   1 
    27    19    21   1 
    28    19    22   1 
    29    23    24   1 
    30    23    25   1 
    31    23    26   1 
    32    27    28   1 
    33    29    30   1 
    34    31    32   1 
    35    31    33   1 
    36    31    34   1 
    37    34    35   1 
    38    34    37   1 
    39    35    36   1 
    40    37    38   1 
    41    37    39   1 
    42    37    41   1 
    43    39    40   1 
    44    41    42   1 
    45    41    46   1 
    46    42    43   1 
    47    42    44   1 
    48    42    45   1 
    49    45    48   1 
    50    46    47   1 
    51    48    49   1 
    52    48    51   1 
    53    48    53   1 
    54    49    50   1 
    55    51    52   1 
    56    53    54   1 
 
