#  inp11.mol2              1    of   10
#                 SCORE =  -272.0309
#              dG-SCORE =    -6.2552
#     LIGAND_EFFICIENCY =    -1.2365
# NUMBER_OF_HEAVY_ATOMS =         22
#                   ASA =  -252.9625
#                   ELE =     0.0000
#                   HYD =   -15.4262
#                   VDW =    -3.6422
#                  RMSD =    28.5891
@<TRIPOS>MOLECULE
inp11.mol2                                                                      
   43   44    0    0    0
SMALL       
GASTEIGER      
 
@<TRIPOS>ATOM
    1 P        92.8346   77.2838   78.7262 P.3      1 UNK          0.0000
    2 O        92.8111   81.7394   78.3732 O.3      1 UNK          0.0000
    3 O        93.2372   78.8067   78.3554 O.3      1 UNK          0.0000
    4 O        92.2657   76.2288   77.6698 O.3      1 UNK          0.0000
    5 H        92.3479   76.5961   76.7728 H        1 UNK          0.0000
    6 O        91.4717   77.8791   78.1937 O.3      1 UNK          0.0000
    7 H        91.6171   78.0673   77.2504 H        1 UNK          0.0000
    8 O        94.0030   77.0738   77.6512 O.3      1 UNK          0.0000
    9 H        94.1193   76.1192   77.4965 H        1 UNK          0.0000
   10 O        88.6327   81.9485   75.2929 O.2      1 UNK          0.0000
   11 N        91.8818   83.7746   77.5516 N.ar     1 UNK          0.0000
   12 N        87.4033   83.7819   75.3117 N.am     1 UNK          0.0000
   13 H        86.8158   83.3952   74.5938 H        1 UNK          0.0000
   14 H        87.1859   84.6891   75.6819 H        1 UNK          0.0000
   15 C        94.7590   82.2408   79.4793 C.3      1 UNK          0.0000
   16 H        95.8456   82.2086   79.3198 H        1 UNK          0.0000
   17 C        94.1143   83.5517   78.9543 C.3      1 UNK          0.0000
   18 H        93.5018   83.9739   79.7606 H        1 UNK          0.0000
   19 C        94.0565   81.1009   78.6783 C.3      1 UNK          0.0000
   20 H        94.6268   80.9272   77.7554 H        1 UNK          0.0000
   21 C        93.1333   83.0346   77.8409 C.3      1 UNK          0.0000
   22 H        93.6938   82.8965   76.9016 H        1 UNK          0.0000
   23 C        94.4892   82.2284   80.9795 C.3      1 UNK          0.0000
   24 H        95.0342   81.4087   81.4619 H        1 UNK          0.0000
   25 H        93.4097   82.1481   81.1243 H        1 UNK          0.0000
   26 H        94.8007   83.1590   81.4350 H        1 UNK          0.0000
   27 C        95.1663   84.6135   78.5269 C.3      1 UNK          0.0000
   28 H        95.8072   84.8928   79.3755 H        1 UNK          0.0000
   29 H        95.8285   84.2212   77.7449 H        1 UNK          0.0000
   30 H        94.6987   85.5332   78.1540 H        1 UNK          0.0000
   31 C        93.7527   79.7299   79.3431 C.3      1 UNK          0.0000
   32 H        94.6495   79.3230   79.8287 H        1 UNK          0.0000
   33 H        92.9851   79.8988   80.0893 H        1 UNK          0.0000
   34 C        90.7789   83.0859   76.8853 C.ar     1 UNK          0.0000
   35 H        90.9546   82.0432   76.6112 H        1 UNK          0.0000
   36 C        91.6728   85.1672   77.8454 C.ar     1 UNK          0.0000
   37 H        92.5176   85.7127   78.2882 H        1 UNK          0.0000
   38 C        89.5707   83.7537   76.5684 C.ar     1 UNK          0.0000
   39 C        90.4560   85.8291   77.5636 C.ar     1 UNK          0.0000
   40 H        90.3065   86.8826   77.7723 H        1 UNK          0.0000
   41 C        89.3759   85.1164   76.9450 C.ar     1 UNK          0.0000
   42 H        88.4602   85.6361   76.7371 H        1 UNK          0.0000
   43 C        88.5029   83.0761   75.7139 C.2      1 UNK          0.0000
@<TRIPOS>BOND
     1     1     3   1 
     2     1     4   1 
     3     1     6   1 
     4     1     8   1 
     5     2    19   1 
     6     2    21   1 
     7     3    31   1 
     8     4     5   1 
     9     6     7   1 
    10     8     9   1 
    11    10    43   2 
    12    11    21   1 
    13    11    34   ar
    14    11    36   ar
    15    12    13   1 
    16    12    14   1 
    17    12    43   am
    18    15    16   1 
    19    15    17   1 
    20    15    19   1 
    21    15    23   1 
    22    17    18   1 
    23    17    21   1 
    24    17    27   1 
    25    19    20   1 
    26    19    31   1 
    27    21    22   1 
    28    23    24   1 
    29    23    25   1 
    30    23    26   1 
    31    27    28   1 
    32    27    29   1 
    33    27    30   1 
    34    31    32   1 
    35    31    33   1 
    36    34    35   1 
    37    34    38   ar
    38    36    37   1 
    39    36    39   ar
    40    38    41   ar
    41    38    43   1 
    42    39    40   1 
    43    39    41   ar
    44    41    42   1 
#MOLECULE END
 
#  inp11.mol2              2    of   10
#                 SCORE =  -222.9606
#              dG-SCORE =    -5.3599
#     LIGAND_EFFICIENCY =    -1.0135
# NUMBER_OF_HEAVY_ATOMS =         22
#                   ASA =  -188.4399
#                   ELE =     0.0000
#                   HYD =   -34.5207
#                   VDW =     0.0000
#                  RMSD =    29.4447
@<TRIPOS>MOLECULE
inp11.mol2                                                                      
   43   44    0    0    0
SMALL       
GASTEIGER      
 
@<TRIPOS>ATOM
    1 P        95.1259   78.1477   77.9260 P.3      1 UNK          0.0000
    2 O        93.1602   81.9714   77.3136 O.3      1 UNK          0.0000
    3 O        94.9059   79.7154   77.6217 O.3      1 UNK          0.0000
    4 O        95.5650   77.1287   76.7685 O.3      1 UNK          0.0000
    5 H        95.6340   77.6143   75.9312 H        1 UNK          0.0000
    6 O        93.8674   78.1803   76.9344 O.3      1 UNK          0.0000
    7 H        94.0315   78.8674   76.2676 H        1 UNK          0.0000
    8 O        96.5955   78.6335   77.5054 O.3      1 UNK          0.0000
    9 H        97.1848   77.8599   77.4987 H        1 UNK          0.0000
   10 O        90.2147   80.2577   73.7666 O.2      1 UNK          0.0000
   11 N        91.4028   83.3114   76.4493 N.ar     1 UNK          0.0000
   12 N        88.1029   80.9221   73.6040 N.am     1 UNK          0.0000
   13 H        87.9039   80.1489   72.9838 H        1 UNK          0.0000
   14 H        87.3682   81.5671   73.8514 H        1 UNK          0.0000
   15 C        94.0904   83.1819   79.0869 C.3      1 UNK          0.0000
   16 H        95.0234   83.7442   79.2289 H        1 UNK          0.0000
   17 C        93.0346   84.0555   78.3462 C.3      1 UNK          0.0000
   18 H        92.1058   84.0685   78.9321 H        1 UNK          0.0000
   19 C        94.3658   82.0218   78.0917 C.3      1 UNK          0.0000
   20 H        95.2106   82.2971   77.4449 H        1 UNK          0.0000
   21 C        92.7891   83.3172   76.9979 C.3      1 UNK          0.0000
   22 H        93.4644   83.7066   76.2215 H        1 UNK          0.0000
   23 C        93.5823   82.7372   80.4869 C.3      1 UNK          0.0000
   24 H        94.3503   82.1634   81.0212 H        1 UNK          0.0000
   25 H        92.6801   82.1179   80.4056 H        1 UNK          0.0000
   26 H        93.3398   83.6118   81.1040 H        1 UNK          0.0000
   27 C        93.5217   85.5127   78.1399 C.3      1 UNK          0.0000
   28 H        93.6874   86.0042   79.1082 H        1 UNK          0.0000
   29 H        94.4674   85.5360   77.5823 H        1 UNK          0.0000
   30 H        92.7875   86.1077   77.5835 H        1 UNK          0.0000
   31 C        94.6425   80.6250   78.7024 C.3      1 UNK          0.0000
   32 H        95.5123   80.6742   79.3704 H        1 UNK          0.0000
   33 H        93.7727   80.2811   79.2765 H        1 UNK          0.0000
   34 C        91.0226   82.2788   75.5700 C.ar     1 UNK          0.0000
   35 H        91.7702   81.5249   75.3158 H        1 UNK          0.0000
   36 C        90.4491   84.3004   76.7567 C.ar     1 UNK          0.0000
   37 H        90.7319   85.1194   77.4171 H        1 UNK          0.0000
   38 C        89.7207   82.2042   75.0352 C.ar     1 UNK          0.0000
   39 C        89.1472   84.2334   76.2331 C.ar     1 UNK          0.0000
   40 H        88.4218   85.0006   76.4909 H        1 UNK          0.0000
   41 C        88.7774   83.1891   75.3767 C.ar     1 UNK          0.0000
   42 H        87.7661   83.1587   74.9785 H        1 UNK          0.0000
   43 C        89.3778   81.0722   74.1055 C.2      1 UNK          0.0000
@<TRIPOS>BOND
     1     1     3   1 
     2     1     4   1 
     3     1     6   1 
     4     1     8   1 
     5     2    19   1 
     6     2    21   1 
     7     3    31   1 
     8     4     5   1 
     9     6     7   1 
    10     8     9   1 
    11    10    43   2 
    12    11    21   1 
    13    11    34   ar
    14    11    36   ar
    15    12    13   1 
    16    12    14   1 
    17    12    43   am
    18    15    16   1 
    19    15    17   1 
    20    15    19   1 
    21    15    23   1 
    22    17    18   1 
    23    17    21   1 
    24    17    27   1 
    25    19    20   1 
    26    19    31   1 
    27    21    22   1 
    28    23    24   1 
    29    23    25   1 
    30    23    26   1 
    31    27    28   1 
    32    27    29   1 
    33    27    30   1 
    34    31    32   1 
    35    31    33   1 
    36    34    35   1 
    37    34    38   ar
    38    36    37   1 
    39    36    39   ar
    40    38    41   ar
    41    38    43   1 
    42    39    40   1 
    43    39    41   ar
    44    41    42   1 
#MOLECULE END
 
#  inp11.mol2              3    of   10
#                 SCORE =  -239.3587
#              dG-SCORE =    -5.7293
#     LIGAND_EFFICIENCY =    -1.0880
# NUMBER_OF_HEAVY_ATOMS =         22
#                   ASA =  -198.4983
#                   ELE =     0.0000
#                   HYD =   -37.1660
#                   VDW =    -3.6943
#                  RMSD =    27.2895
@<TRIPOS>MOLECULE
inp11.mol2                                                                      
   43   44    0    0    0
SMALL       
GASTEIGER      
 
@<TRIPOS>ATOM
    1 P        93.5014   72.4870   77.2497 P.3      1 UNK          0.0000
    2 O        92.6957   76.8755   76.4881 O.3      1 UNK          0.0000
    3 O        93.7818   74.0688   77.1111 O.3      1 UNK          0.0000
    4 O        94.1571   71.4375   76.2273 O.3      1 UNK          0.0000
    5 H        94.6623   71.9256   75.5575 H        1 UNK          0.0000
    6 O        92.8127   72.9147   75.8614 O.3      1 UNK          0.0000
    7 H        93.4102   73.4951   75.3654 H        1 UNK          0.0000
    8 O        95.0739   72.5473   77.5752 O.3      1 UNK          0.0000
    9 H        95.3538   71.6755   77.9000 H        1 UNK          0.0000
   10 O        92.0193   76.7126   71.4269 O.2      1 UNK          0.0000
   11 N        92.2148   78.8252   75.1569 N.ar     1 UNK          0.0000
   12 N        90.0296   77.5342   70.8105 N.am     1 UNK          0.0000
   13 H        89.9744   76.9027   70.0158 H        1 UNK          0.0000
   14 H        89.2693   78.1699   70.9685 H        1 UNK          0.0000
   15 C        93.0624   77.5812   78.6135 C.3      1 UNK          0.0000
   16 H        93.8761   77.8738   79.2718 H        1 UNK          0.0000
   17 C        92.7684   78.8036   77.7314 C.3      1 UNK          0.0000
   18 H        91.7226   79.0445   77.8771 H        1 UNK          0.0000
   19 C        93.4675   76.4587   77.6160 C.3      1 UNK          0.0000
   20 H        94.5329   76.5505   77.3561 H        1 UNK          0.0000
   21 C        93.0103   78.2673   76.2799 C.3      1 UNK          0.0000
   22 H        94.0802   78.3437   76.0356 H        1 UNK          0.0000
   23 C        91.8183   77.2238   79.4532 C.3      1 UNK          0.0000
   24 H        91.9783   76.3779   80.1242 H        1 UNK          0.0000
   25 H        90.9862   76.9512   78.8017 H        1 UNK          0.0000
   26 H        91.5580   78.0868   80.0647 H        1 UNK          0.0000
   27 C        93.5903   80.0581   78.1041 C.3      1 UNK          0.0000
   28 H        93.3556   80.3871   79.1277 H        1 UNK          0.0000
   29 H        94.6685   79.8576   78.0476 H        1 UNK          0.0000
   30 H        93.3627   80.8905   77.4258 H        1 UNK          0.0000
   31 C        93.1407   74.9822   78.0088 C.3      1 UNK          0.0000
   32 H        93.4908   74.7478   79.0176 H        1 UNK          0.0000
   33 H        92.0652   74.8355   77.9931 H        1 UNK          0.0000
   34 C        92.1785   78.1019   73.9001 C.ar     1 UNK          0.0000
   35 H        92.8956   77.2801   73.8058 H        1 UNK          0.0000
   36 C        91.4220   80.0199   75.1987 C.ar     1 UNK          0.0000
   37 H        91.5658   80.6953   76.0543 H        1 UNK          0.0000
   38 C        91.2060   78.3912   72.8975 C.ar     1 UNK          0.0000
   39 C        90.4492   80.3230   74.2139 C.ar     1 UNK          0.0000
   40 H        89.8101   81.1941   74.3024 H        1 UNK          0.0000
   41 C        90.2825   79.4594   73.0725 C.ar     1 UNK          0.0000
   42 H        89.4909   79.6499   72.3688 H        1 UNK          0.0000
   43 C        91.1196   77.4974   71.6562 C.2      1 UNK          0.0000
@<TRIPOS>BOND
     1     1     3   1 
     2     1     4   1 
     3     1     6   1 
     4     1     8   1 
     5     2    19   1 
     6     2    21   1 
     7     3    31   1 
     8     4     5   1 
     9     6     7   1 
    10     8     9   1 
    11    10    43   2 
    12    11    21   1 
    13    11    34   ar
    14    11    36   ar
    15    12    13   1 
    16    12    14   1 
    17    12    43   am
    18    15    16   1 
    19    15    17   1 
    20    15    19   1 
    21    15    23   1 
    22    17    18   1 
    23    17    21   1 
    24    17    27   1 
    25    19    20   1 
    26    19    31   1 
    27    21    22   1 
    28    23    24   1 
    29    23    25   1 
    30    23    26   1 
    31    27    28   1 
    32    27    29   1 
    33    27    30   1 
    34    31    32   1 
    35    31    33   1 
    36    34    35   1 
    37    34    38   ar
    38    36    37   1 
    39    36    39   ar
    40    38    41   ar
    41    38    43   1 
    42    39    40   1 
    43    39    41   ar
    44    41    42   1 
#MOLECULE END
 
#  inp11.mol2              4    of   10
#                 SCORE =  -222.0738
#              dG-SCORE =    -5.7147
#     LIGAND_EFFICIENCY =    -1.0094
# NUMBER_OF_HEAVY_ATOMS =         22
#                   ASA =  -162.2082
#                   ELE =     0.0000
#                   HYD =   -59.8656
#                   VDW =     0.0000
#                  RMSD =    28.5264
@<TRIPOS>MOLECULE
inp11.mol2                                                                      
   43   44    0    0    0
SMALL       
GASTEIGER      
 
@<TRIPOS>ATOM
    1 P        91.9025   77.3789   70.0735 P.3      1 UNK          0.0000
    2 O        94.1959   75.1678   73.0249 O.3      1 UNK          0.0000
    3 O        93.1558   76.7684   70.8829 O.3      1 UNK          0.0000
    4 O        91.5428   78.9396   70.1498 O.3      1 UNK          0.0000
    5 H        92.1674   79.3775   70.7494 H        1 UNK          0.0000
    6 O        91.5041   77.5718   71.6137 O.3      1 UNK          0.0000
    7 H        92.3065   77.8252   72.0992 H        1 UNK          0.0000
    8 O        93.1540   78.1092   69.3858 O.3      1 UNK          0.0000
    9 H        92.8177   78.7397   68.7263 H        1 UNK          0.0000
   10 O        92.0551   77.4085   76.8446 O.2      1 UNK          0.0000
   11 N        94.5956   74.4232   75.2423 N.ar     1 UNK          0.0000
   12 N        91.5563   76.2956   78.6994 N.am     1 UNK          0.0000
   13 H        90.9522   77.0507   78.9940 H        1 UNK          0.0000
   14 H        91.6577   75.4790   79.2826 H        1 UNK          0.0000
   15 C        95.2804   73.6426   71.6204 C.3      1 UNK          0.0000
   16 H        96.1939   73.6729   71.0109 H        1 UNK          0.0000
   17 C        95.6268   73.3317   73.1069 C.3      1 UNK          0.0000
   18 H        95.0293   72.4732   73.4420 H        1 UNK          0.0000
   19 C        94.6834   75.0752   71.6777 C.3      1 UNK          0.0000
   20 H        95.4901   75.8061   71.5267 H        1 UNK          0.0000
   21 C        95.1903   74.6058   73.8875 C.3      1 UNK          0.0000
   22 H        96.0333   75.3075   73.9739 H        1 UNK          0.0000
   23 C        94.3382   72.5640   71.0163 C.3      1 UNK          0.0000
   24 H        94.1383   72.7642   69.9559 H        1 UNK          0.0000
   25 H        93.3798   72.5278   71.5495 H        1 UNK          0.0000
   26 H        94.8001   71.5704   71.0796 H        1 UNK          0.0000
   27 C        97.1301   73.0072   73.3020 C.3      1 UNK          0.0000
   28 H        97.4060   72.1059   72.7379 H        1 UNK          0.0000
   29 H        97.7600   73.8341   72.9480 H        1 UNK          0.0000
   30 H        97.3698   72.8286   74.3571 H        1 UNK          0.0000
   31 C        93.5323   75.3950   70.6911 C.3      1 UNK          0.0000
   32 H        93.8709   75.2407   69.6583 H        1 UNK          0.0000
   33 H        92.6722   74.7413   70.8844 H        1 UNK          0.0000
   34 C        93.7414   75.4207   75.7513 C.ar     1 UNK          0.0000
   35 H        93.5580   76.3000   75.1306 H        1 UNK          0.0000
   36 C        94.8559   73.3015   76.0524 C.ar     1 UNK          0.0000
   37 H        95.5320   72.5304   75.6851 H        1 UNK          0.0000
   38 C        93.1299   75.2971   77.0152 C.ar     1 UNK          0.0000
   39 C        94.2482   73.1657   77.3118 C.ar     1 UNK          0.0000
   40 H        94.4532   72.2871   77.9179 H        1 UNK          0.0000
   41 C        93.3846   74.1559   77.7958 C.ar     1 UNK          0.0000
   42 H        92.9285   74.0336   78.7753 H        1 UNK          0.0000
   43 C        92.2239   76.3969   77.4979 C.2      1 UNK          0.0000
@<TRIPOS>BOND
     1     1     3   1 
     2     1     4   1 
     3     1     6   1 
     4     1     8   1 
     5     2    19   1 
     6     2    21   1 
     7     3    31   1 
     8     4     5   1 
     9     6     7   1 
    10     8     9   1 
    11    10    43   2 
    12    11    21   1 
    13    11    34   ar
    14    11    36   ar
    15    12    13   1 
    16    12    14   1 
    17    12    43   am
    18    15    16   1 
    19    15    17   1 
    20    15    19   1 
    21    15    23   1 
    22    17    18   1 
    23    17    21   1 
    24    17    27   1 
    25    19    20   1 
    26    19    31   1 
    27    21    22   1 
    28    23    24   1 
    29    23    25   1 
    30    23    26   1 
    31    27    28   1 
    32    27    29   1 
    33    27    30   1 
    34    31    32   1 
    35    31    33   1 
    36    34    35   1 
    37    34    38   ar
    38    36    37   1 
    39    36    39   ar
    40    38    41   ar
    41    38    43   1 
    42    39    40   1 
    43    39    41   ar
    44    41    42   1 
#MOLECULE END
 
#  inp11.mol2              5    of   10
#                 SCORE =  -254.5946
#              dG-SCORE =    -5.6323
#     LIGAND_EFFICIENCY =    -1.1572
# NUMBER_OF_HEAVY_ATOMS =         22
#                   ASA =  -246.5999
#                   ELE =     0.0000
#                   HYD =    -4.2304
#                   VDW =    -3.7643
#                  RMSD =    29.8452
@<TRIPOS>MOLECULE
inp11.mol2                                                                      
   43   44    0    0    0
SMALL       
GASTEIGER      
 
@<TRIPOS>ATOM
    1 P        89.5562   85.1383   76.5589 P.3      1 UNK          0.0000
    2 O        93.3572   83.8116   78.3284 O.3      1 UNK          0.0000
    3 O        90.7707   85.0607   77.6133 O.3      1 UNK          0.0000
    4 O        88.1634   84.4200   76.8582 O.3      1 UNK          0.0000
    5 H        88.2233   84.0304   77.7429 H        1 UNK          0.0000
    6 O        89.8813   83.5685   76.6571 O.3      1 UNK          0.0000
    7 H        89.8670   83.3108   77.5915 H        1 UNK          0.0000
    8 O        88.9761   86.0144   77.7778 O.3      1 UNK          0.0000
    9 H        88.2203   86.5328   77.4522 H        1 UNK          0.0000
   10 O        91.9711   79.0675   78.6024 O.2      1 UNK          0.0000
   11 N        94.8659   82.1306   79.1779 N.ar     1 UNK          0.0000
   12 N        93.3227   77.4720   78.0372 N.am     1 UNK          0.0000
   13 H        92.5252   76.8629   77.9151 H        1 UNK          0.0000
   14 H        94.2420   77.1510   77.8030 H        1 UNK          0.0000
   15 C        94.4807   85.8580   78.2971 C.3      1 UNK          0.0000
   16 H        94.5351   86.6926   79.0019 H        1 UNK          0.0000
   17 C        95.3944   84.6978   78.7531 C.3      1 UNK          0.0000
   18 H        95.9439   84.3221   77.8833 H        1 UNK          0.0000
   19 C        93.0746   85.2183   78.3866 C.3      1 UNK          0.0000
   20 H        92.6821   85.4097   79.3814 H        1 UNK          0.0000
   21 C        94.4232   83.5878   79.2611 C.3      1 UNK          0.0000
   22 H        94.0518   83.7656   80.2742 H        1 UNK          0.0000
   23 C        94.9648   86.3708   76.9197 C.3      1 UNK          0.0000
   24 H        94.3478   87.2065   76.5687 H        1 UNK          0.0000
   25 H        94.9282   85.5676   76.1730 H        1 UNK          0.0000
   26 H        96.0010   86.7251   76.9919 H        1 UNK          0.0000
   27 C        96.4053   85.2793   79.7497 C.3      1 UNK          0.0000
   28 H        97.0078   86.0756   79.3011 H        1 UNK          0.0000
   29 H        95.8541   85.7206   80.5845 H        1 UNK          0.0000
   30 H        97.0640   84.5013   80.1280 H        1 UNK          0.0000
   31 C        92.0416   85.6603   77.3141 C.3      1 UNK          0.0000
   32 H        91.9510   86.7548   77.2953 H        1 UNK          0.0000
   33 H        92.3851   85.3299   76.3274 H        1 UNK          0.0000
   34 C        93.8695   81.1229   79.0664 C.ar     1 UNK          0.0000
   35 H        92.8184   81.3990   79.1261 H        1 UNK          0.0000
   36 C        96.2428   81.7598   79.1288 C.ar     1 UNK          0.0000
   37 H        97.0087   82.5188   79.1828 H        1 UNK          0.0000
   38 C        94.2309   79.7344   78.7834 C.ar     1 UNK          0.0000
   39 C        96.6247   80.3739   78.9412 C.ar     1 UNK          0.0000
   40 H        97.6718   80.1059   78.9223 H        1 UNK          0.0000
   41 C        95.6186   79.4069   78.7298 C.ar     1 UNK          0.0000
   42 H        95.9288   78.3814   78.4870 H        1 UNK          0.0000
   43 C        93.1256   78.7619   78.4971 C.2      1 UNK          0.0000
@<TRIPOS>BOND
     1     1     3   1 
     2     1     4   1 
     3     1     6   1 
     4     1     8   1 
     5     2    19   1 
     6     2    21   1 
     7     3    31   1 
     8     4     5   1 
     9     6     7   1 
    10     8     9   1 
    11    10    43   2 
    12    11    21   1 
    13    11    34   ar
    14    11    36   ar
    15    12    13   1 
    16    12    14   1 
    17    12    43   am
    18    15    16   1 
    19    15    17   1 
    20    15    19   1 
    21    15    23   1 
    22    17    18   1 
    23    17    21   1 
    24    17    27   1 
    25    19    20   1 
    26    19    31   1 
    27    21    22   1 
    28    23    24   1 
    29    23    25   1 
    30    23    26   1 
    31    27    28   1 
    32    27    29   1 
    33    27    30   1 
    34    31    32   1 
    35    31    33   1 
    36    34    35   1 
    37    34    38   ar
    38    36    37   1 
    39    36    39   ar
    40    38    41   ar
    41    38    43   1 
    42    39    40   1 
    43    39    41   ar
    44    41    42   1 
#MOLECULE END
 
#  inp11.mol2              6    of   10
#                 SCORE =  -253.2654
#              dG-SCORE =    -6.1644
#     LIGAND_EFFICIENCY =    -1.1512
# NUMBER_OF_HEAVY_ATOMS =         22
#                   ASA =  -217.5815
#                   ELE =     0.0000
#                   HYD =   -35.6839
#                   VDW =     0.0000
#                  RMSD =    29.5550
@<TRIPOS>MOLECULE
inp11.mol2                                                                      
   43   44    0    0    0
SMALL       
GASTEIGER      
 
@<TRIPOS>ATOM
    1 P        89.3056   79.4367   72.7991 P.3      1 UNK          0.0000
    2 O        90.3326   82.3304   75.8701 O.3      1 UNK          0.0000
    3 O        89.1567   80.5891   73.9164 O.3      1 UNK          0.0000
    4 O        88.7696   77.9485   73.0616 O.3      1 UNK          0.0000
    5 H        88.4006   77.9004   73.9577 H        1 UNK          0.0000
    6 O        90.2372   78.9361   74.0030 O.3      1 UNK          0.0000
    7 H        89.7862   79.1489   74.8367 H        1 UNK          0.0000
    8 O        87.7150   79.6031   72.9222 O.3      1 UNK          0.0000
    9 H        87.2915   78.9450   72.3449 H        1 UNK          0.0000
   10 O        92.5131   78.9897   78.7475 O.2      1 UNK          0.0000
   11 N        91.5383   83.0006   77.8009 N.ar     1 UNK          0.0000
   12 N        94.3574   79.4773   79.8826 N.am     1 UNK          0.0000
   13 H        94.5229   78.4930   80.0430 H        1 UNK          0.0000
   14 H        95.0043   80.1596   80.2474 H        1 UNK          0.0000
   15 C        89.6945   84.3022   74.7838 C.3      1 UNK          0.0000
   16 H        88.7457   84.8433   74.6659 H        1 UNK          0.0000
   17 C        90.3491   84.6420   76.1558 C.3      1 UNK          0.0000
   18 H        91.3805   84.9795   75.9869 H        1 UNK          0.0000
   19 C        89.3812   82.7852   74.8958 C.3      1 UNK          0.0000
   20 H        88.3625   82.6574   75.2880 H        1 UNK          0.0000
   21 C        90.3637   83.2916   76.9301 C.3      1 UNK          0.0000
   22 H        89.4520   83.1907   77.5376 H        1 UNK          0.0000
   23 C        90.6191   84.6943   73.5976 C.3      1 UNK          0.0000
   24 H        90.1307   84.4964   72.6348 H        1 UNK          0.0000
   25 H        91.5646   84.1381   73.6280 H        1 UNK          0.0000
   26 H        90.8538   85.7659   73.6304 H        1 UNK          0.0000
   27 C        89.5741   85.7488   76.9159 C.3      1 UNK          0.0000
   28 H        89.5807   86.6862   76.3433 H        1 UNK          0.0000
   29 H        88.5276   85.4570   77.0756 H        1 UNK          0.0000
   30 H        90.0209   85.9521   77.8966 H        1 UNK          0.0000
   31 C        89.5253   81.9423   73.6038 C.3      1 UNK          0.0000
   32 H        88.8643   82.3391   72.8223 H        1 UNK          0.0000
   33 H        90.5611   81.9732   73.2423 H        1 UNK          0.0000
   34 C        91.8547   81.6594   78.0920 C.ar     1 UNK          0.0000
   35 H        91.2132   80.8818   77.6726 H        1 UNK          0.0000
   36 C        92.3475   84.0061   78.3634 C.ar     1 UNK          0.0000
   37 H        92.1048   85.0500   78.1681 H        1 UNK          0.0000
   38 C        92.9651   81.3173   78.8899 C.ar     1 UNK          0.0000
   39 C        93.4594   83.6766   79.1564 C.ar     1 UNK          0.0000
   40 H        94.0785   84.4670   79.5727 H        1 UNK          0.0000
   41 C        93.7739   82.3379   79.4198 C.ar     1 UNK          0.0000
   42 H        94.6360   82.1046   80.0401 H        1 UNK          0.0000
   43 C        93.2506   79.8649   79.1585 C.2      1 UNK          0.0000
@<TRIPOS>BOND
     1     1     3   1 
     2     1     4   1 
     3     1     6   1 
     4     1     8   1 
     5     2    19   1 
     6     2    21   1 
     7     3    31   1 
     8     4     5   1 
     9     6     7   1 
    10     8     9   1 
    11    10    43   2 
    12    11    21   1 
    13    11    34   ar
    14    11    36   ar
    15    12    13   1 
    16    12    14   1 
    17    12    43   am
    18    15    16   1 
    19    15    17   1 
    20    15    19   1 
    21    15    23   1 
    22    17    18   1 
    23    17    21   1 
    24    17    27   1 
    25    19    20   1 
    26    19    31   1 
    27    21    22   1 
    28    23    24   1 
    29    23    25   1 
    30    23    26   1 
    31    27    28   1 
    32    27    29   1 
    33    27    30   1 
    34    31    32   1 
    35    31    33   1 
    36    34    35   1 
    37    34    38   ar
    38    36    37   1 
    39    36    39   ar
    40    38    41   ar
    41    38    43   1 
    42    39    40   1 
    43    39    41   ar
    44    41    42   1 
#MOLECULE END
 
#  inp11.mol2              7    of   10
#                 SCORE =  -250.6086
#              dG-SCORE =    -5.8822
#     LIGAND_EFFICIENCY =    -1.1391
# NUMBER_OF_HEAVY_ATOMS =         22
#                   ASA =  -218.0657
#                   ELE =     0.0000
#                   HYD =   -28.4743
#                   VDW =    -4.0686
#                  RMSD =    32.0715
@<TRIPOS>MOLECULE
inp11.mol2                                                                      
   43   44    0    0    0
SMALL       
GASTEIGER      
 
@<TRIPOS>ATOM
    1 P        89.5057   78.6141   73.5944 P.3      1 UNK          0.0000
    2 O        87.8225   82.4101   72.7257 O.3      1 UNK          0.0000
    3 O        89.4915   80.1745   73.2213 O.3      1 UNK          0.0000
    4 O        89.5128   77.5715   72.3666 O.3      1 UNK          0.0000
    5 H        89.9229   77.9837   71.5916 H        1 UNK          0.0000
    6 O        88.1410   78.8907   72.8319 O.3      1 UNK          0.0000
    7 H        88.3960   79.1376   71.9239 H        1 UNK          0.0000
    8 O        90.9616   78.8629   72.9601 O.3      1 UNK          0.0000
    9 H        91.5505   78.1241   73.1909 H        1 UNK          0.0000
   10 O        84.8286   80.6713   68.9223 O.2      1 UNK          0.0000
   11 N        86.2295   83.7352   71.5838 N.ar     1 UNK          0.0000
   12 N        82.8921   81.6473   68.5348 N.am     1 UNK          0.0000
   13 H        82.6370   80.9097   67.8818 H        1 UNK          0.0000
   14 H        82.2186   82.3579   68.7547 H        1 UNK          0.0000
   15 C        88.7698   83.7787   74.3531 C.3      1 UNK          0.0000
   16 H        89.7320   84.2980   74.4476 H        1 UNK          0.0000
   17 C        87.7853   84.6029   73.4765 C.3      1 UNK          0.0000
   18 H        86.8329   84.7048   74.0135 H        1 UNK          0.0000
   19 C        89.0164   82.5091   73.4901 C.3      1 UNK          0.0000
   20 H        89.8572   82.6944   72.8061 H        1 UNK          0.0000
   21 C        87.5551   83.7091   72.2129 C.3      1 UNK          0.0000
   22 H        88.3076   83.9516   71.4468 H        1 UNK          0.0000
   23 C        88.2080   83.5627   75.7899 C.3      1 UNK          0.0000
   24 H        88.8782   82.9337   76.3898 H        1 UNK          0.0000
   25 H        87.2288   83.0917   75.7622 H        1 UNK          0.0000
   26 H        88.0947   84.5198   76.3061 H        1 UNK          0.0000
   27 C        88.3417   85.9974   73.0892 C.3      1 UNK          0.0000
   28 H        88.4835   86.6244   73.9807 H        1 UNK          0.0000
   29 H        89.3160   85.9005   72.5930 H        1 UNK          0.0000
   30 H        87.6822   86.5285   72.3934 H        1 UNK          0.0000
   31 C        89.2462   81.1737   74.2150 C.3      1 UNK          0.0000
   32 H        90.1052   81.2587   74.8882 H        1 UNK          0.0000
   33 H        88.3468   80.9095   74.7785 H        1 UNK          0.0000
   34 C        85.8003   82.6441   70.7262 C.ar     1 UNK          0.0000
   35 H        86.4771   81.8011   70.6055 H        1 UNK          0.0000
   36 C        85.3429   84.8276   71.7326 C.ar     1 UNK          0.0000
   37 H        85.6896   85.6379   72.3884 H        1 UNK          0.0000
   38 C        84.5420   82.7054   70.0822 C.ar     1 UNK          0.0000
   39 C        84.1171   84.8997   71.0425 C.ar     1 UNK          0.0000
   40 H        83.5096   85.7681   71.0398 H        1 UNK          0.0000
   41 C        83.6844   83.8068   70.2493 C.ar     1 UNK          0.0000
   42 H        82.7379   83.8595   69.7626 H        1 UNK          0.0000
   43 C        84.1104   81.5957   69.1529 C.2      1 UNK          0.0000
@<TRIPOS>BOND
     1     1     3   1 
     2     1     4   1 
     3     1     6   1 
     4     1     8   1 
     5     2    19   1 
     6     2    21   1 
     7     3    31   1 
     8     4     5   1 
     9     6     7   1 
    10     8     9   1 
    11    10    43   2 
    12    11    21   1 
    13    11    34   ar
    14    11    36   ar
    15    12    13   1 
    16    12    14   1 
    17    12    43   am
    18    15    16   1 
    19    15    17   1 
    20    15    19   1 
    21    15    23   1 
    22    17    18   1 
    23    17    21   1 
    24    17    27   1 
    25    19    20   1 
    26    19    31   1 
    27    21    22   1 
    28    23    24   1 
    29    23    25   1 
    30    23    26   1 
    31    27    28   1 
    32    27    29   1 
    33    27    30   1 
    34    31    32   1 
    35    31    33   1 
    36    34    35   1 
    37    34    38   ar
    38    36    37   1 
    39    36    39   ar
    40    38    41   ar
    41    38    43   1 
    42    39    40   1 
    43    39    41   ar
    44    41    42   1 
#MOLECULE END
 
#  inp11.mol2              8    of   10
#                 SCORE =  -216.0327
#              dG-SCORE =    -4.8742
#     LIGAND_EFFICIENCY =    -0.9820
# NUMBER_OF_HEAVY_ATOMS =         22
#                   ASA =  -191.5889
#                   ELE =     0.0000
#                   HYD =   -20.6398
#                   VDW =    -3.8041
#                  RMSD =    29.4953
@<TRIPOS>MOLECULE
inp11.mol2                                                                      
   43   44    0    0    0
SMALL       
GASTEIGER      
 
@<TRIPOS>ATOM
    1 P        92.5120   78.6917   79.1233 P.3      1 UNK          0.0000
    2 O        90.9014   81.5022   76.2229 O.3      1 UNK          0.0000
    3 O        92.3570   80.0172   78.2120 O.3      1 UNK          0.0000
    4 O        93.6439   77.6317   78.7725 O.3      1 UNK          0.0000
    5 H        94.1659   77.9620   78.0242 H        1 UNK          0.0000
    6 O        92.1347   78.0525   77.7038 O.3      1 UNK          0.0000
    7 H        92.6457   78.4987   77.0091 H        1 UNK          0.0000
    8 O        93.8836   79.4555   79.4511 O.3      1 UNK          0.0000
    9 H        94.3917   78.9334   80.0904 H        1 UNK          0.0000
   10 O        91.0910   78.1818   72.4311 O.2      1 UNK          0.0000
   11 N        89.8080   81.9050   74.1124 N.ar     1 UNK          0.0000
   12 N        89.4833   78.0109   70.9399 N.am     1 UNK          0.0000
   13 H        89.8188   77.0986   70.6544 H        1 UNK          0.0000
   14 H        88.7163   78.4252   70.4589 H        1 UNK          0.0000
   15 C        90.2474   83.2438   77.5324 C.3      1 UNK          0.0000
   16 H        90.7102   84.1459   77.9449 H        1 UNK          0.0000
   17 C        89.7846   83.5346   76.1039 C.3      1 UNK          0.0000
   18 H        88.7085   83.3102   76.0441 H        1 UNK          0.0000
   19 C        91.3336   82.1353   77.4343 C.3      1 UNK          0.0000
   20 H        92.3040   82.6105   77.2512 H        1 UNK          0.0000
   21 C        90.5575   82.4948   75.2435 C.3      1 UNK          0.0000
   22 H        91.4893   82.9465   74.8700 H        1 UNK          0.0000
   23 C        88.9173   82.9511   78.2404 C.3      1 UNK          0.0000
   24 H        89.0911   82.5402   79.2349 H        1 UNK          0.0000
   25 H        88.2858   82.2602   77.6814 H        1 UNK          0.0000
   26 H        88.4041   83.9092   78.3394 H        1 UNK          0.0000
   27 C        90.0330   85.0116   75.7295 C.3      1 UNK          0.0000
   28 H        89.4683   85.6789   76.3983 H        1 UNK          0.0000
   29 H        91.0984   85.2608   75.8302 H        1 UNK          0.0000
   30 H        89.7292   85.2242   74.6977 H        1 UNK          0.0000
   31 C        91.5201   81.1257   78.6153 C.3      1 UNK          0.0000
   32 H        91.9723   81.5963   79.4852 H        1 UNK          0.0000
   33 H        90.5365   80.7609   78.9149 H        1 UNK          0.0000
   34 C        90.2102   80.6071   73.5921 C.ar     1 UNK          0.0000
   35 H        91.0512   80.1219   74.0868 H        1 UNK          0.0000
   36 C        88.7054   82.5483   73.4540 C.ar     1 UNK          0.0000
   37 H        88.3885   83.5350   73.8290 H        1 UNK          0.0000
   38 C        89.5501   80.0134   72.4908 C.ar     1 UNK          0.0000
   39 C        88.0403   81.9720   72.3529 C.ar     1 UNK          0.0000
   40 H        87.2313   82.4892   71.8494 H        1 UNK          0.0000
   41 C        88.4436   80.6735   71.8751 C.ar     1 UNK          0.0000
   42 H        87.9080   80.2553   71.0486 H        1 UNK          0.0000
   43 C        90.0904   78.6743   71.9692 C.2      1 UNK          0.0000
@<TRIPOS>BOND
     1     1     3   1 
     2     1     4   1 
     3     1     6   1 
     4     1     8   1 
     5     2    19   1 
     6     2    21   1 
     7     3    31   1 
     8     4     5   1 
     9     6     7   1 
    10     8     9   1 
    11    10    43   2 
    12    11    21   1 
    13    11    34   ar
    14    11    36   ar
    15    12    13   1 
    16    12    14   1 
    17    12    43   am
    18    15    16   1 
    19    15    17   1 
    20    15    19   1 
    21    15    23   1 
    22    17    18   1 
    23    17    21   1 
    24    17    27   1 
    25    19    20   1 
    26    19    31   1 
    27    21    22   1 
    28    23    24   1 
    29    23    25   1 
    30    23    26   1 
    31    27    28   1 
    32    27    29   1 
    33    27    30   1 
    34    31    32   1 
    35    31    33   1 
    36    34    35   1 
    37    34    38   ar
    38    36    37   1 
    39    36    39   ar
    40    38    41   ar
    41    38    43   1 
    42    39    40   1 
    43    39    41   ar
    44    41    42   1 
#MOLECULE END
 
#  inp11.mol2              9    of   10
#                 SCORE =  -231.8095
#              dG-SCORE =    -5.1901
#     LIGAND_EFFICIENCY =    -1.0537
# NUMBER_OF_HEAVY_ATOMS =         22
#                   ASA =  -213.5199
#                   ELE =     0.0000
#                   HYD =   -14.4313
#                   VDW =    -3.8582
#                  RMSD =    31.4296
@<TRIPOS>MOLECULE
inp11.mol2                                                                      
   43   44    0    0    0
SMALL       
GASTEIGER      
 
@<TRIPOS>ATOM
    1 P        85.1215   84.2423   70.8033 P.3      1 UNK          0.0000
    2 O        87.6534   83.7761   74.3681 O.3      1 UNK          0.0000
    3 O        85.5210   84.1326   72.3670 O.3      1 UNK          0.0000
    4 O        84.1624   83.1971   70.0404 O.3      1 UNK          0.0000
    5 H        83.7608   82.5752   70.6637 H        1 UNK          0.0000
    6 O        85.9844   82.8917   70.8544 O.3      1 UNK          0.0000
    7 H        85.7091   82.3658   71.6184 H        1 UNK          0.0000
    8 O        83.6954   84.3988   71.4857 O.3      1 UNK          0.0000
    9 H        83.0491   84.5518   70.7801 H        1 UNK          0.0000
   10 O        88.5517   79.1345   73.1284 O.2      1 UNK          0.0000
   11 N        89.1488   82.5020   75.6529 N.ar     1 UNK          0.0000
   12 N        90.6226   78.4014   73.2741 N.am     1 UNK          0.0000
   13 H        90.3879   77.6479   72.6394 H        1 UNK          0.0000
   14 H        91.5463   78.4648   73.6786 H        1 UNK          0.0000
   15 C        87.6008   85.8746   75.2834 C.3      1 UNK          0.0000
   16 H        86.9537   86.4332   75.9712 H        1 UNK          0.0000
   17 C        88.5374   84.9576   76.1107 C.3      1 UNK          0.0000
   18 H        89.5611   85.1149   75.7520 H        1 UNK          0.0000
   19 C        86.7479   84.8605   74.4306 C.3      1 UNK          0.0000
   20 H        85.8735   84.5700   75.0154 H        1 UNK          0.0000
   21 C        88.0974   83.5317   75.7010 C.3      1 UNK          0.0000
   22 H        87.2543   83.1799   76.2940 H        1 UNK          0.0000
   23 C        88.5029   86.8822   74.5024 C.3      1 UNK          0.0000
   24 H        87.9401   87.6055   73.9062 H        1 UNK          0.0000
   25 H        89.1746   86.3494   73.8200 H        1 UNK          0.0000
   26 H        89.1175   87.4663   75.1993 H        1 UNK          0.0000
   27 C        88.5266   85.1975   77.6375 C.3      1 UNK          0.0000
   28 H        88.8454   86.2182   77.8908 H        1 UNK          0.0000
   29 H        87.5238   85.0512   78.0320 H        1 UNK          0.0000
   30 H        89.1669   84.4858   78.1625 H        1 UNK          0.0000
   31 C        86.3203   85.1704   72.9538 C.3      1 UNK          0.0000
   32 H        85.7358   86.0833   72.9163 H        1 UNK          0.0000
   33 H        87.2145   85.3238   72.3415 H        1 UNK          0.0000
   34 C        89.0073   81.4360   74.7082 C.ar     1 UNK          0.0000
   35 H        88.1087   81.4016   74.1040 H        1 UNK          0.0000
   36 C        90.3453   82.5469   76.4402 C.ar     1 UNK          0.0000
   37 H        90.4497   83.3423   77.1807 H        1 UNK          0.0000
   38 C        90.0031   80.4534   74.5219 C.ar     1 UNK          0.0000
   39 C        91.3899   81.6034   76.2349 C.ar     1 UNK          0.0000
   40 H        92.3014   81.6646   76.8224 H        1 UNK          0.0000
   41 C        91.2340   80.5557   75.2644 C.ar     1 UNK          0.0000
   42 H        92.0251   79.8257   75.1404 H        1 UNK          0.0000
   43 C        89.6648   79.3077   73.5988 C.2      1 UNK          0.0000
@<TRIPOS>BOND
     1     1     3   1 
     2     1     4   1 
     3     1     6   1 
     4     1     8   1 
     5     2    19   1 
     6     2    21   1 
     7     3    31   1 
     8     4     5   1 
     9     6     7   1 
    10     8     9   1 
    11    10    43   2 
    12    11    21   1 
    13    11    34   ar
    14    11    36   ar
    15    12    13   1 
    16    12    14   1 
    17    12    43   am
    18    15    16   1 
    19    15    17   1 
    20    15    19   1 
    21    15    23   1 
    22    17    18   1 
    23    17    21   1 
    24    17    27   1 
    25    19    20   1 
    26    19    31   1 
    27    21    22   1 
    28    23    24   1 
    29    23    25   1 
    30    23    26   1 
    31    27    28   1 
    32    27    29   1 
    33    27    30   1 
    34    31    32   1 
    35    31    33   1 
    36    34    35   1 
    37    34    38   ar
    38    36    37   1 
    39    36    39   ar
    40    38    41   ar
    41    38    43   1 
    42    39    40   1 
    43    39    41   ar
    44    41    42   1 
#MOLECULE END
 
#  inp11.mol2             10    of   10
#                 SCORE =  -226.8080
#              dG-SCORE =    -4.9935
#     LIGAND_EFFICIENCY =    -1.0309
# NUMBER_OF_HEAVY_ATOMS =         22
#                   ASA =  -212.7359
#                   ELE =     0.0000
#                   HYD =   -10.1214
#                   VDW =    -3.9507
#                  RMSD =    29.2229
@<TRIPOS>MOLECULE
inp11.mol2                                                                      
   43   44    0    0    0
SMALL       
GASTEIGER      
 
@<TRIPOS>ATOM
    1 P        92.6239   78.2147   78.4494 P.3      1 UNK          0.0000
    2 O        93.8945   82.3462   78.6799 O.3      1 UNK          0.0000
    3 O        93.6700   79.3981   78.2247 O.3      1 UNK          0.0000
    4 O        91.7945   77.6837   77.1905 O.3      1 UNK          0.0000
    5 H        92.0486   78.1782   76.3910 H        1 UNK          0.0000
    6 O        91.8037   79.5593   78.1436 O.3      1 UNK          0.0000
    7 H        92.1198   79.9204   77.2917 H        1 UNK          0.0000
    8 O        93.7047   77.6099   77.4372 O.3      1 UNK          0.0000
    9 H        93.4201   76.7252   77.1565 H        1 UNK          0.0000
   10 O        89.6708   84.3039   76.6759 O.2      1 UNK          0.0000
   11 N        93.7202   84.7316   78.2477 N.ar     1 UNK          0.0000
   12 N        89.0998   86.3985   77.0965 N.am     1 UNK          0.0000
   13 H        88.1819   86.2253   76.7053 H        1 UNK          0.0000
   14 H        89.3054   87.3059   77.4898 H        1 UNK          0.0000
   15 C        95.8874   82.0203   79.7770 C.3      1 UNK          0.0000
   16 H        96.8927   81.6699   79.5254 H        1 UNK          0.0000
   17 C        95.6537   83.5284   79.4642 C.3      1 UNK          0.0000
   18 H        95.1689   83.9692   80.3286 H        1 UNK          0.0000
   19 C        94.9060   81.3347   78.8233 C.3      1 UNK          0.0000
   20 H        95.4178   81.1687   77.8650 H        1 UNK          0.0000
   21 C        94.5982   83.5552   78.3372 C.3      1 UNK          0.0000
   22 H        95.1091   83.4248   77.3715 H        1 UNK          0.0000
   23 C        95.5396   81.6692   81.2465 C.3      1 UNK          0.0000
   24 H        95.5402   80.5836   81.3710 H        1 UNK          0.0000
   25 H        94.5509   82.0743   81.4708 H        1 UNK          0.0000
   26 H        96.2347   82.0861   81.9728 H        1 UNK          0.0000
   27 C        96.9229   84.3301   79.0814 C.3      1 UNK          0.0000
   28 H        97.6545   84.2482   79.8870 H        1 UNK          0.0000
   29 H        97.3960   83.9271   78.1781 H        1 UNK          0.0000
   30 H        96.7232   85.3973   78.9285 H        1 UNK          0.0000
   31 C        94.3035   80.0092   79.3348 C.3      1 UNK          0.0000
   32 H        95.0774   79.3440   79.7309 H        1 UNK          0.0000
   33 H        93.5693   80.2238   80.1164 H        1 UNK          0.0000
   34 C        92.3926   84.5597   77.6872 C.ar     1 UNK          0.0000
   35 H        92.1355   83.5415   77.3729 H        1 UNK          0.0000
   36 C        94.0933   86.0783   78.6360 C.ar     1 UNK          0.0000
   37 H        95.0708   86.2328   79.1162 H        1 UNK          0.0000
   38 C        91.4773   85.6213   77.5477 C.ar     1 UNK          0.0000
   39 C        93.2187   87.1563   78.4194 C.ar     1 UNK          0.0000
   40 H        93.4650   88.1734   78.7606 H        1 UNK          0.0000
   41 C        91.9055   86.9446   77.8651 C.ar     1 UNK          0.0000
   42 H        91.2188   87.7675   77.7571 H        1 UNK          0.0000
   43 C        90.0409   85.3937   77.0785 C.2      1 UNK          0.0000
@<TRIPOS>BOND
     1     1     3   1 
     2     1     4   1 
     3     1     6   1 
     4     1     8   1 
     5     2    19   1 
     6     2    21   1 
     7     3    31   1 
     8     4     5   1 
     9     6     7   1 
    10     8     9   1 
    11    10    43   2 
    12    11    21   1 
    13    11    34   ar
    14    11    36   ar
    15    12    13   1 
    16    12    14   1 
    17    12    43   am
    18    15    16   1 
    19    15    17   1 
    20    15    19   1 
    21    15    23   1 
    22    17    18   1 
    23    17    21   1 
    24    17    27   1 
    25    19    20   1 
    26    19    31   1 
    27    21    22   1 
    28    23    24   1 
    29    23    25   1 
    30    23    26   1 
    31    27    28   1 
    32    27    29   1 
    33    27    30   1 
    34    31    32   1 
    35    31    33   1 
    36    34    35   1 
    37    34    38   ar
    38    36    37   1 
    39    36    39   ar
    40    38    41   ar
    41    38    43   1 
    42    39    40   1 
    43    39    41   ar
    44    41    42   1 
#MOLECULE END
 
