inp11.mol2
     Hgene          

 22 23  0  0  0  0               V2000
   80.8920   58.4140   96.8210 P   0  0  2  0  0
   84.0310   61.3420   96.1630 O   0  0  0  0  0
   82.1460   59.1790   96.1570 O   0  0  0  0  0
   79.4480   58.4220   96.1240 O   0  0  0  0  0
   80.4820   59.9620   96.8820 O   0  0  0  0  0
   81.1080   57.6100   95.4500 O   0  0  0  0  0
   80.9180   65.1500   96.1160 O   0  0  0  0  0
   84.8470   63.5700   96.1290 N   0  0  0  0  0
   81.4630   67.0930   97.0410 N   0  0  0  0  0
   85.9090   59.9640   96.3850 C   0  0  0  0  0
   86.3580   61.4420   96.1840 C   0  0  0  0  0
   84.4170   59.9750   95.9540 C   0  0  0  0  0
   85.0850   62.1730   95.6660 C   0  0  0  0  0
   86.1670   59.4820   97.8400 C   0  0  0  0  0
   87.5490   61.5630   95.1990 C   0  0  0  0  0
   83.4550   59.0440   96.7340 C   0  0  0  0  0
   83.5310   64.0720   96.1310 C   0  0  0  0  0
   85.8800   64.4260   96.5560 C   0  0  0  0  0
   83.2370   65.3760   96.5780 C   0  0  0  0  0
   85.5980   65.7260   97.0080 C   0  0  0  0  0
   84.2820   66.2040   97.0240 C   0  0  0  0  0
   81.8090   65.8490   96.5590 C   0  0  0  0  0
  1  3  1  0
  1  4  1  0
  1  5  1  0
  1  6  1  0
  2 12  1  0
  2 13  1  0
  3 16  1  0
  7 22  2  0
  8 13  1  0
  8 17  4  0
  8 18  4  0
  9 22  1  0
 10 11  1  0
 10 12  1  0
 10 14  1  0
 11 13  1  0
 11 15  1  0
 12 16  1  0
 17 19  4  0
 18 20  4  0
 19 21  4  0
 19 22  1  0
 20 21  4  0
M  END
$$$$
