@<TRIPOS>MOLECULE
inp11.mol2
 43 44 0 0 0
SMALL
GASTEIGER

@<TRIPOS>ATOM
     1 P1          80.8920    58.4140    96.8210 P.3       1  UNK         0.0000
     2 O1          84.0310    61.3420    96.1630 O.3       1  UNK         0.0000
     3 O2          82.1460    59.1790    96.1570 O.3       1  UNK         0.0000
     4 O3          79.4480    58.4220    96.1240 O.3       1  UNK         0.0000
     5 H17         79.4920    58.9560    95.3150 H         1  UNK         0.0000
     6 O4          80.4820    59.9620    96.8820 O.3       1  UNK         0.0000
     7 H20         80.7820    60.3820    96.0590 H         1  UNK         0.0000
     8 O5          81.1080    57.6100    95.4500 O.3       1  UNK         0.0000
     9 H21         80.4100    56.9370    95.3750 H         1  UNK         0.0000
    10 O6          80.9180    65.1500    96.1160 O.2       1  UNK         0.0000
    11 N1          84.8470    63.5700    96.1290 N.ar      1  UNK         0.0000
    12 N2          81.4630    67.0930    97.0410 N.am      1  UNK         0.0000
    13 H18         80.4940    67.3800    97.0170 H         1  UNK         0.0000
    14 H19         82.1600    67.7150    97.4210 H         1  UNK         0.0000
    15 C1          85.9090    59.9640    96.3850 C.3       1  UNK         0.0000
    16 H1          86.4600    59.2990    95.7060 H         1  UNK         0.0000
    17 C2          86.3580    61.4420    96.1840 C.3       1  UNK         0.0000
    18 H2          86.6530    61.8620    97.1550 H         1  UNK         0.0000
    19 C3          84.4170    59.9750    95.9540 C.3       1  UNK         0.0000
    20 H3          84.3510    59.7330    94.8840 H         1  UNK         0.0000
    21 C4          85.0850    62.1730    95.6660 C.3       1  UNK         0.0000
    22 H4          85.0630    62.1670    94.5660 H         1  UNK         0.0000
    23 C5          86.1670    59.4820    97.8400 C.3       1  UNK         0.0000
    24 H5          85.8930    58.4260    97.9600 H         1  UNK         0.0000
    25 H6          85.5930    60.0740    98.5640 H         1  UNK         0.0000
    26 H7          87.2310    59.5740    98.0930 H         1  UNK         0.0000
    27 C6          87.5490    61.5630    95.1990 C.3       1  UNK         0.0000
    28 H8          88.4290    61.0360    95.5920 H         1  UNK         0.0000
    29 H9          87.2990    61.1240    94.2240 H         1  UNK         0.0000
    30 H10         87.8310    62.6100    95.0350 H         1  UNK         0.0000
    31 C7          83.4550    59.0440    96.7340 C.3       1  UNK         0.0000
    32 H11         83.7940    58.0030    96.6530 H         1  UNK         0.0000
    33 H12         83.4270    59.3270    97.7940 H         1  UNK         0.0000
    34 C8          83.5310    64.0720    96.1310 C.ar      1  UNK         0.0000
    35 H13         82.7340    63.4140    95.7790 H         1  UNK         0.0000
    36 C9          85.8800    64.4260    96.5560 C.ar      1  UNK         0.0000
    37 H14         86.9070    64.0630    96.5400 H         1  UNK         0.0000
    38 C10         83.2370    65.3760    96.5780 C.ar      1  UNK         0.0000
    39 C11         85.5980    65.7260    97.0080 C.ar      1  UNK         0.0000
    40 H15         86.4080    66.3680    97.3440 H         1  UNK         0.0000
    41 C12         84.2820    66.2040    97.0240 C.ar      1  UNK         0.0000
    42 H16         84.0860    67.2150    97.3730 H         1  UNK         0.0000
    43 C13         81.8090    65.8490    96.5590 C.2       1  UNK         0.0000
@<TRIPOS>BOND
     1     1     3   1
     2     1     4   1
     3     1     6   1
     4     1     8   1
     5     2    19   1
     6     2    21   1
     7     3    31   1
     8     4     5   1
     9     6     7   1
    10     8     9   1
    11    10    43   2
    12    11    21   1
    13    11    34  ar
    14    11    36  ar
    15    12    13   1
    16    12    14   1
    17    12    43  am
    18    15    16   1
    19    15    17   1
    20    15    19   1
    21    15    23   1
    22    17    18   1
    23    17    21   1
    24    17    27   1
    25    19    20   1
    26    19    31   1
    27    21    22   1
    28    23    24   1
    29    23    25   1
    30    23    26   1
    31    27    28   1
    32    27    29   1
    33    27    30   1
    34    31    32   1
    35    31    33   1
    36    34    35   1
    37    34    38  ar
    38    36    37   1
    39    36    39  ar
    40    38    41  ar
    41    38    43   1
    42    39    40   1
    43    39    41  ar
    44    41    42   1

