inp11.mol2
     Hgene          

 31 33  0  0  0  0               V2000
   94.3325   73.4687   76.2853 P   0  0  1  0  0
   92.0721   79.9059   76.4437 O   0  0  0  0  0
   92.4631   77.6263   79.3477 O   0  0  0  0  0
   94.4443   77.6618   77.1685 O   0  0  0  0  0
   93.9876   75.0440   76.2383 O   0  0  0  0  0
   89.1935   84.7522   74.9818 O   0  0  0  0  0
   86.6997   81.7799   77.1003 O   0  0  0  0  0
   95.2463   73.0568   75.0293 O   0  0  0  0  0
   95.0864   73.0976   77.6567 O   0  0  0  0  0
   92.9476   72.6977   76.1408 O   0  0  0  0  0
   91.2864   81.8416   78.3551 N   0  0  0  0  0
   91.5132   84.1705   76.6300 N   0  0  0  0  0
   88.8238   81.9461   77.8746 N   0  0  0  0  0
   87.9093   83.2758   76.0227 N   0  0  0  0  0
   92.3213   79.5265   77.8146 C   0  0  0  0  0
   91.4935   80.4193   78.8136 C   0  0  0  0  0
   92.1664   77.9662   78.0033 C   0  0  0  0  0
   92.3504   82.7295   78.4883 C   0  0  0  0  0
   90.1069   82.3923   77.6629 C   0  0  0  0  0
   93.1057   77.1780   77.0298 C   0  0  0  0  0
   92.5107   83.8822   77.6241 C   0  0  0  0  0
   90.3026   83.4794   76.7218 C   0  0  0  0  0
   93.2836   82.5090   79.5465 C   0  0  0  0  0
   93.1085   75.6370   77.2155 C   0  0  0  0  0
   93.6126   84.7372   77.7568 C   0  0  0  0  0
   94.3306   83.4071   79.7182 C   0  0  0  0  0
   94.5593   84.5157   78.8158 C   0  0  0  0  0
   89.1175   83.9001   75.8286 C   0  0  0  0  0
   87.7642   82.3140   76.9966 C   0  0  0  0  0
   95.1552   83.0660   80.9259 C   0  0  0  0  0
   95.7381   85.4766   78.8450 C   0  0  0  0  0
  1  5  1  0
  1  8  1  0
  1  9  1  0
  1 10  1  0
  2 15  1  0
  3 17  1  0
  4 20  1  0
  5 24  1  0
  6 28  2  0
  7 29  2  0
 11 16  1  0
 11 18  1  0
 11 19  1  0
 12 21  1  0
 12 22  1  0
 13 19  1  0
 13 29  1  0
 14 28  1  0
 14 29  1  0
 15 16  1  0
 15 17  1  0
 17 20  1  0
 18 21  4  0
 18 23  4  0
 19 22  2  0
 20 24  1  0
 21 25  4  0
 22 28  1  0
 23 26  4  0
 25 27  4  0
 26 27  4  0
 26 30  1  0
 27 31  1  0
M  END
$$$$
