@<TRIPOS>COMMENT
   inp11.mol2              2    of   10
                  SCORE =  -301.0425
               dG-SCORE =    -6.3956
      LIGAND_EFFICIENCY =    -0.9711
  NUMBER_OF_HEAVY_ATOMS =         31
                    ASA =  -259.8304
                    ELE =     0.0000
                    HYD =   -34.3291
                    VDW =    -6.8831
                   RMSD =    29.0767
 MOLECULAR_WEIGHT = 459.37
@<TRIPOS>MOLECULE
inp11.mol2                                                                      
   55   57    0    0    0
SMALL       
GASTEIGER      
 
@<TRIPOS>ATOM
    1 P        94.3325   73.4687   76.2853 P.3      1 UNK          0.0000
    2 O        92.0721   79.9059   76.4437 O.3      1 UNK          0.0000
    3 H        92.4512   79.2218   75.8561 H        1 UNK          0.0000
    4 O        92.4631   77.6263   79.3477 O.3      1 UNK          0.0000
    5 H        93.4105   77.4236   79.3497 H        1 UNK          0.0000
    6 O        94.4443   77.6618   77.1685 O.3      1 UNK          0.0000
    7 H        94.9911   77.1339   76.5550 H        1 UNK          0.0000
    8 O        93.9876   75.0440   76.2383 O.3      1 UNK          0.0000
    9 O        89.1935   84.7522   74.9818 O.2      1 UNK          0.0000
   10 O        86.6997   81.7799   77.1003 O.2      1 UNK          0.0000
   11 O        95.2463   73.0568   75.0293 O.3      1 UNK          0.0000
   12 H        96.0367   73.6198   74.9978 H        1 UNK          0.0000
   13 O        95.0864   73.0976   77.6567 O.3      1 UNK          0.0000
   14 H        95.2771   72.1455   77.6676 H        1 UNK          0.0000
   15 O        92.9476   72.6977   76.1408 O.3      1 UNK          0.0000
   16 H        92.6165   72.8737   75.2461 H        1 UNK          0.0000
   17 N        91.2864   81.8416   78.3551 N.pl3    1 UNK          0.0000
   18 N        91.5132   84.1705   76.6300 N.pl3    1 UNK          0.0000
   19 H        91.6580   84.8764   75.9246 H        1 UNK          0.0000
   20 N        88.8238   81.9461   77.8746 N.am     1 UNK          0.0000
   21 H        88.5958   81.3291   78.6298 H        1 UNK          0.0000
   22 N        87.9093   83.2758   76.0227 N.am     1 UNK          0.0000
   23 H        87.1050   83.5397   75.4651 H        1 UNK          0.0000
   24 C        92.3213   79.5265   77.8146 C.3      1 UNK          0.0000
   25 H        93.3738   79.7530   78.0109 H        1 UNK          0.0000
   26 C        91.4935   80.4193   78.8136 C.3      1 UNK          0.0000
   27 H        92.0521   80.4207   79.7716 H        1 UNK          0.0000
   28 H        90.5418   79.9293   79.0211 H        1 UNK          0.0000
   29 C        92.1664   77.9662   78.0033 C.3      1 UNK          0.0000
   30 H        91.1448   77.6347   77.8009 H        1 UNK          0.0000
   31 C        92.3504   82.7295   78.4883 C.ar     1 UNK          0.0000
   32 C        90.1069   82.3923   77.6629 C.2      1 UNK          0.0000
   33 C        93.1057   77.1780   77.0298 C.3      1 UNK          0.0000
   34 H        92.7635   77.3734   76.0062 H        1 UNK          0.0000
   35 C        92.5107   83.8822   77.6241 C.ar     1 UNK          0.0000
   36 C        90.3026   83.4794   76.7218 C.2      1 UNK          0.0000
   37 C        93.2836   82.5090   79.5465 C.ar     1 UNK          0.0000
   38 H        93.1580   81.6726   80.2198 H        1 UNK          0.0000
   39 C        93.1085   75.6370   77.2155 C.3      1 UNK          0.0000
   40 H        92.1030   75.2303   77.1211 H        1 UNK          0.0000
   41 H        93.4577   75.3930   78.2141 H        1 UNK          0.0000
   42 C        93.6126   84.7372   77.7568 C.ar     1 UNK          0.0000
   43 H        93.7598   85.5662   77.0746 H        1 UNK          0.0000
   44 C        94.3306   83.4071   79.7182 C.ar     1 UNK          0.0000
   45 C        94.5593   84.5157   78.8158 C.ar     1 UNK          0.0000
   46 C        89.1175   83.9001   75.8286 C.2      1 UNK          0.0000
   47 C        87.7642   82.3140   76.9966 C.2      1 UNK          0.0000
   48 C        95.1552   83.0660   80.9259 C.3      1 UNK          0.0000
   49 H        96.1749   82.8329   80.6227 H        1 UNK          0.0000
   50 H        94.7761   82.2062   81.4719 H        1 UNK          0.0000
   51 H        95.1592   83.9079   81.6172 H        1 UNK          0.0000
   52 C        95.7381   85.4766   78.8450 C.3      1 UNK          0.0000
   53 H        95.7199   86.1497   77.9823 H        1 UNK          0.0000
   54 H        95.7332   86.1232   79.7228 H        1 UNK          0.0000
   55 H        96.6924   84.9372   78.8263 H        1 UNK          0.0000
@<TRIPOS>BOND
     1     1     8   1 
     2     1    11   1 
     3     1    13   1 
     4     1    15   1 
     5     2     3   1 
     6     2    24   1 
     7     4     5   1 
     8     4    29   1 
     9     6     7   1 
    10     6    33   1 
    11     8    39   1 
    12     9    46   2 
    13    10    47   2 
    14    11    12   1 
    15    13    14   1 
    16    15    16   1 
    17    17    26   1 
    18    17    31   1 
    19    17    32   1 
    20    18    19   1 
    21    18    35   1 
    22    18    36   1 
    23    20    21   1 
    24    20    32   1 
    25    20    47   am
    26    22    23   1 
    27    22    46   am
    28    22    47   am
    29    24    25   1 
    30    24    26   1 
    31    24    29   1 
    32    26    27   1 
    33    26    28   1 
    34    29    30   1 
    35    29    33   1 
    36    31    35   ar
    37    31    37   ar
    38    32    36   2 
    39    33    34   1 
    40    33    39   1 
    41    35    42   ar
    42    36    46   1 
    43    37    38   1 
    44    37    44   ar
    45    39    40   1 
    46    39    41   1 
    47    42    43   1 
    48    42    45   ar
    49    44    45   ar
    50    44    48   1 
    51    45    52   1 
    52    48    49   1 
    53    48    50   1 
    54    48    51   1 
    55    52    53   1 
    56    52    54   1 
    57    52    55   1 
 
