inp11.mol2
     Hgene          

 31 33  0  0  0  0               V2000
   90.6039   80.5945   69.1979 P   0  0  1  0  0
   92.2296   76.9069   74.7475 O   0  0  0  0  0
   94.5180   78.7878   72.5422 O   0  0  0  0  0
   91.9256   80.0324   73.2434 O   0  0  0  0  0
   90.8253   79.9039   70.6372 O   0  0  0  0  0
   92.0476   73.2513   78.6391 O   0  0  0  0  0
   94.4626   71.9440   75.0847 O   0  0  0  0  0
   89.1330   81.2329   69.1505 O   0  0  0  0  0
   91.7001   81.7503   68.9944 O   0  0  0  0  0
   90.7412   79.4815   68.0485 O   0  0  0  0  0
   94.6155   76.4853   76.2008 N   0  0  0  0  0
   92.9508   75.9290   78.4111 N   0  0  0  0  0
   94.5728   74.1134   75.6215 N   0  0  0  0  0
   93.2266   72.5324   76.8625 N   0  0  0  0  0
   93.3450   77.7289   74.3809 C   0  0  0  0  0
   94.6621   77.0179   74.8022 C   0  0  0  0  0
   93.3290   78.0613   72.8569 C   0  0  0  0  0
   94.6072   77.3539   77.3165 C   0  0  0  0  0
   94.1846   75.1652   76.4381 C   0  0  0  0  0
   92.0600   78.8640   72.4328 C   0  0  0  0  0
   93.7421   77.0838   78.4101 C   0  0  0  0  0
   93.3072   74.9115   77.5177 C   0  0  0  0  0
   95.4435   78.4872   77.3593 C   0  0  0  0  0
   92.0718   79.2576   70.9340 C   0  0  0  0  0
   93.7060   77.9509   79.5145 C   0  0  0  0  0
   95.4080   79.3555   78.4683 C   0  0  0  0  0
   94.5335   79.0891   79.5488 C   0  0  0  0  0
   92.8057   73.5210   77.7295 C   0  0  0  0  0
   94.0985   72.8270   75.8298 C   0  0  0  0  0
   96.3282   80.5774   78.4880 C   0  0  0  0  0
   94.4780   80.0138   80.7646 C   0  0  0  0  0
  1  5  1  0
  1  8  1  0
  1  9  1  0
  1 10  1  0
  2 15  1  0
  3 17  1  0
  4 20  1  0
  5 24  1  0
  6 28  2  0
  7 29  2  0
 11 16  1  0
 11 18  1  0
 11 19  1  0
 12 21  1  0
 12 22  1  0
 13 19  1  0
 13 29  1  0
 14 28  1  0
 14 29  1  0
 15 16  1  0
 15 17  1  0
 17 20  1  0
 18 21  4  0
 18 23  4  0
 19 22  2  0
 20 24  1  0
 21 25  4  0
 22 28  1  0
 23 26  4  0
 25 27  4  0
 26 27  4  0
 26 30  1  0
 27 31  1  0
M  END
$$$$
