@<TRIPOS>COMMENT
   inp11.mol2              5    of   10
                  SCORE =  -278.0334
               dG-SCORE =    -5.7689
      LIGAND_EFFICIENCY =    -0.8969
  NUMBER_OF_HEAVY_ATOMS =         31
                    ASA =  -239.2238
                    ELE =     0.0000
                    HYD =   -32.0920
                    VDW =    -6.7176
                   RMSD =    29.4466
 MOLECULAR_WEIGHT = 459.37
@<TRIPOS>MOLECULE
inp11.mol2                                                                      
   55   57    0    0    0
SMALL       
GASTEIGER      
 
@<TRIPOS>ATOM
    1 P        85.9445   82.0753   70.2602 P.3      1 UNK          0.0000
    2 O        90.0484   78.6249   74.4720 O.3      1 UNK          0.0000
    3 H        89.1057   78.8415   74.3644 H        1 UNK          0.0000
    4 O        91.0240   81.2825   72.1710 O.3      1 UNK          0.0000
    5 H        90.4529   82.0650   72.0479 H        1 UNK          0.0000
    6 O        88.6051   81.7403   73.7537 O.3      1 UNK          0.0000
    7 H        87.8321   82.2629   73.4797 H        1 UNK          0.0000
    8 O        86.6791   81.2557   71.4569 O.3      1 UNK          0.0000
    9 O        92.4720   74.8749   78.2129 O.2      1 UNK          0.0000
   10 O        93.8524   74.5221   73.9234 O.2      1 UNK          0.0000
   11 O        84.3900   82.3149   70.5004 O.3      1 UNK          0.0000
   12 H        84.2907   82.9105   71.2582 H        1 UNK          0.0000
   13 O        86.6210   83.5144   70.0871 O.3      1 UNK          0.0000
   14 H        86.1895   83.9553   69.3339 H        1 UNK          0.0000
   15 O        85.9795   81.2932   68.8752 O.3      1 UNK          0.0000
   16 H        85.4012   80.5150   68.9492 H        1 UNK          0.0000
   17 N        92.7629   78.9063   75.4453 N.pl3    1 UNK          0.0000
   18 N        92.4255   77.7596   78.0967 N.pl3    1 UNK          0.0000
   19 H        92.1375   77.3723   78.9822 H        1 UNK          0.0000
   20 N        93.3202   76.6113   74.6144 N.am     1 UNK          0.0000
   21 H        93.5128   76.9478   73.6816 H        1 UNK          0.0000
   22 N        93.1281   74.6294   76.0672 N.am     1 UNK          0.0000
   23 H        93.1514   73.6126   76.1485 H        1 UNK          0.0000
   24 C        90.8154   79.7679   74.0655 C.3      1 UNK          0.0000
   25 H        90.6574   80.5952   74.7695 H        1 UNK          0.0000
   26 C        92.3594   79.4455   74.1001 C.3      1 UNK          0.0000
   27 H        92.9297   80.3623   73.8675 H        1 UNK          0.0000
   28 H        92.5891   78.7318   73.3009 H        1 UNK          0.0000
   29 C        90.2157   80.2266   72.7014 C.3      1 UNK          0.0000
   30 H        90.2582   79.3701   72.0161 H        1 UNK          0.0000
   31 C        92.9114   79.7268   76.6087 C.ar     1 UNK          0.0000
   32 C        92.9232   77.4658   75.6523 C.2      1 UNK          0.0000
   33 C        88.7061   80.6623   72.8196 C.3      1 UNK          0.0000
   34 H        88.1214   79.8050   73.1771 H        1 UNK          0.0000
   35 C        92.6971   79.1687   77.9355 C.ar     1 UNK          0.0000
   36 C        92.6751   76.9341   76.9830 C.2      1 UNK          0.0000
   37 C        93.3197   81.1252   76.5113 C.ar     1 UNK          0.0000
   38 H        93.5387   81.5633   75.5461 H        1 UNK          0.0000
   39 C        88.1175   81.0913   71.4456 C.3      1 UNK          0.0000
   40 H        88.4039   80.3452   70.7020 H        1 UNK          0.0000
   41 H        88.5855   82.0370   71.1504 H        1 UNK          0.0000
   42 C        92.8098   79.9650   79.0872 C.ar     1 UNK          0.0000
   43 H        92.6422   79.5297   80.0488 H        1 UNK          0.0000
   44 C        93.5082   81.8992   77.6955 C.ar     1 UNK          0.0000
   45 C        93.2314   81.3415   78.9819 C.ar     1 UNK          0.0000
   46 C        92.7401   75.4045   77.1626 C.2      1 UNK          0.0000
   47 C        93.4639   75.2069   74.8297 C.2      1 UNK          0.0000
   48 C        94.0740   83.3355   77.5885 C.3      1 UNK          0.0000
   49 H        93.3718   84.0699   77.9987 H        1 UNK          0.0000
   50 H        94.2890   83.6198   76.5521 H        1 UNK          0.0000
   51 H        95.0125   83.4215   78.1532 H        1 UNK          0.0000
   52 C        93.4348   82.1729   80.2314 C.3      1 UNK          0.0000
   53 H        92.9247   81.7345   81.0850 H        1 UNK          0.0000
   54 H        94.4955   82.2811   80.4824 H        1 UNK          0.0000
   55 H        93.0430   83.1822   80.0892 H        1 UNK          0.0000
@<TRIPOS>BOND
     1     1     8   1 
     2     1    11   1 
     3     1    13   1 
     4     1    15   1 
     5     2     3   1 
     6     2    24   1 
     7     4     5   1 
     8     4    29   1 
     9     6     7   1 
    10     6    33   1 
    11     8    39   1 
    12     9    46   2 
    13    10    47   2 
    14    11    12   1 
    15    13    14   1 
    16    15    16   1 
    17    17    26   1 
    18    17    31   1 
    19    17    32   1 
    20    18    19   1 
    21    18    35   1 
    22    18    36   1 
    23    20    21   1 
    24    20    32   1 
    25    20    47   am
    26    22    23   1 
    27    22    46   am
    28    22    47   am
    29    24    25   1 
    30    24    26   1 
    31    24    29   1 
    32    26    27   1 
    33    26    28   1 
    34    29    30   1 
    35    29    33   1 
    36    31    35   ar
    37    31    37   ar
    38    32    36   2 
    39    33    34   1 
    40    33    39   1 
    41    35    42   ar
    42    36    46   1 
    43    37    38   1 
    44    37    44   ar
    45    39    40   1 
    46    39    41   1 
    47    42    43   1 
    48    42    45   ar
    49    44    45   ar
    50    44    48   1 
    51    45    52   1 
    52    48    49   1 
    53    48    50   1 
    54    48    51   1 
    55    52    53   1 
    56    52    54   1 
    57    52    55   1 
 
