@<TRIPOS>COMMENT
   inp11.mol2              7    of   10
                  SCORE =  -280.9261
               dG-SCORE =    -6.8579
      LIGAND_EFFICIENCY =    -0.9062
  NUMBER_OF_HEAVY_ATOMS =         31
                    ASA =  -192.5209
                    ELE =     0.0000
                    HYD =   -88.4053
                    VDW =     0.0000
                   RMSD =    31.9355
 MOLECULAR_WEIGHT = 459.37
@<TRIPOS>MOLECULE
inp11.mol2                                                                      
   55   57    0    0    0
SMALL       
GASTEIGER      
 
@<TRIPOS>ATOM
    1 P        91.5700   76.1905   69.8478 P.3      1 UNK          0.0000
    2 O        89.0940   82.4297   71.2558 O.3      1 UNK          0.0000
    3 H        89.8986   82.0556   70.8439 H        1 UNK          0.0000
    4 O        88.0595   79.2082   72.7355 O.3      1 UNK          0.0000
    5 H        88.7164   78.5111   72.9276 H        1 UNK          0.0000
    6 O        90.9486   79.6687   72.2861 O.3      1 UNK          0.0000
    7 H        91.6733   79.0442   72.0862 H        1 UNK          0.0000
    8 O        91.2439   77.7148   70.2577 O.3      1 UNK          0.0000
    9 O        87.7319   87.5729   70.7729 O.2      1 UNK          0.0000
   10 O        84.4187   84.7465   69.6734 O.2      1 UNK          0.0000
   11 O        93.0865   76.1061   69.3316 O.3      1 UNK          0.0000
   12 H        93.6881   76.3676   70.0497 H        1 UNK          0.0000
   13 O        91.3854   75.2482   71.1350 O.3      1 UNK          0.0000
   14 H        91.5741   74.3273   70.8828 H        1 UNK          0.0000
   15 O        90.5780   75.7339   68.6704 O.3      1 UNK          0.0000
   16 H        90.7795   76.2441   67.8670 H        1 UNK          0.0000
   17 N        87.2589   83.4367   73.1534 N.pl3    1 UNK          0.0000
   18 N        88.6150   85.8971   72.8824 N.pl3    1 UNK          0.0000
   19 H        89.2157   86.6928   72.6793 H        1 UNK          0.0000
   20 N        85.7474   84.1171   71.3602 N.am     1 UNK          0.0000
   21 H        85.1957   83.2759   71.4665 H        1 UNK          0.0000
   22 N        86.0580   86.1975   70.1654 N.am     1 UNK          0.0000
   23 H        85.7542   86.8282   69.4346 H        1 UNK          0.0000
   24 C        88.6622   81.5090   72.2659 C.3      1 UNK          0.0000
   25 H        89.3831   81.5211   73.0940 H        1 UNK          0.0000
   26 C        87.2892   81.9757   72.8272 C.3      1 UNK          0.0000
   27 H        87.0416   81.3841   73.7198 H        1 UNK          0.0000
   28 H        86.5140   81.7415   72.0858 H        1 UNK          0.0000
   29 C        88.5965   80.0511   71.7150 C.3      1 UNK          0.0000
   30 H        87.9215   80.0357   70.8491 H        1 UNK          0.0000
   31 C        87.9967   83.9612   74.2396 C.ar     1 UNK          0.0000
   32 C        86.8354   84.3666   72.1836 C.2      1 UNK          0.0000
   33 C        89.9874   79.5282   71.2388 C.3      1 UNK          0.0000
   34 H        90.3043   80.1321   70.3799 H        1 UNK          0.0000
   35 C        88.7028   85.1837   74.0837 C.ar     1 UNK          0.0000
   36 C        87.5584   85.5712   72.0235 C.2      1 UNK          0.0000
   37 C        88.0447   83.2873   75.4762 C.ar     1 UNK          0.0000
   38 H        87.4939   82.3628   75.6268 H        1 UNK          0.0000
   39 C        89.9420   78.0565   70.7554 C.3      1 UNK          0.0000
   40 H        89.1944   77.9423   69.9590 H        1 UNK          0.0000
   41 H        89.6700   77.3926   71.5861 H        1 UNK          0.0000
   42 C        89.4591   85.7043   75.1465 C.ar     1 UNK          0.0000
   43 H        89.9969   86.6433   75.0287 H        1 UNK          0.0000
   44 C        88.8021   83.8112   76.5425 C.ar     1 UNK          0.0000
   45 C        89.5154   85.0224   76.3766 C.ar     1 UNK          0.0000
   46 C        87.1421   86.5269   70.9542 C.2      1 UNK          0.0000
   47 C        85.3725   85.0137   70.3708 C.2      1 UNK          0.0000
   48 C        88.8346   83.0588   77.8740 C.3      1 UNK          0.0000
   49 H        89.8637   82.8217   78.1713 H        1 UNK          0.0000
   50 H        88.2852   82.1097   77.8231 H        1 UNK          0.0000
   51 H        88.3811   83.6558   78.6750 H        1 UNK          0.0000
   52 C        90.3420   85.6132   77.5185 C.3      1 UNK          0.0000
   53 H        90.7951   86.5737   77.2426 H        1 UNK          0.0000
   54 H        89.7225   85.7903   78.4073 H        1 UNK          0.0000
   55 H        91.1584   84.9383   77.8056 H        1 UNK          0.0000
@<TRIPOS>BOND
     1     1     8   1 
     2     1    11   1 
     3     1    13   1 
     4     1    15   1 
     5     2     3   1 
     6     2    24   1 
     7     4     5   1 
     8     4    29   1 
     9     6     7   1 
    10     6    33   1 
    11     8    39   1 
    12     9    46   2 
    13    10    47   2 
    14    11    12   1 
    15    13    14   1 
    16    15    16   1 
    17    17    26   1 
    18    17    31   1 
    19    17    32   1 
    20    18    19   1 
    21    18    35   1 
    22    18    36   1 
    23    20    21   1 
    24    20    32   1 
    25    20    47   am
    26    22    23   1 
    27    22    46   am
    28    22    47   am
    29    24    25   1 
    30    24    26   1 
    31    24    29   1 
    32    26    27   1 
    33    26    28   1 
    34    29    30   1 
    35    29    33   1 
    36    31    35   ar
    37    31    37   ar
    38    32    36   2 
    39    33    34   1 
    40    33    39   1 
    41    35    42   ar
    42    36    46   1 
    43    37    38   1 
    44    37    44   ar
    45    39    40   1 
    46    39    41   1 
    47    42    43   1 
    48    42    45   ar
    49    44    45   ar
    50    44    48   1 
    51    45    52   1 
    52    48    49   1 
    53    48    50   1 
    54    48    51   1 
    55    52    53   1 
    56    52    54   1 
    57    52    55   1 
 
