inp11.mol2
     Hgene          

 31 33  0  0  0  0               V2000
   91.5700   76.1905   69.8478 P   0  0  1  0  0
   89.0940   82.4297   71.2558 O   0  0  0  0  0
   88.0595   79.2082   72.7355 O   0  0  0  0  0
   90.9486   79.6687   72.2861 O   0  0  0  0  0
   91.2439   77.7148   70.2577 O   0  0  0  0  0
   87.7319   87.5729   70.7729 O   0  0  0  0  0
   84.4187   84.7465   69.6734 O   0  0  0  0  0
   93.0865   76.1061   69.3316 O   0  0  0  0  0
   91.3854   75.2482   71.1350 O   0  0  0  0  0
   90.5780   75.7339   68.6704 O   0  0  0  0  0
   87.2589   83.4367   73.1534 N   0  0  0  0  0
   88.6150   85.8971   72.8824 N   0  0  0  0  0
   85.7474   84.1171   71.3602 N   0  0  0  0  0
   86.0580   86.1975   70.1654 N   0  0  0  0  0
   88.6622   81.5090   72.2659 C   0  0  0  0  0
   87.2892   81.9757   72.8272 C   0  0  0  0  0
   88.5965   80.0511   71.7150 C   0  0  0  0  0
   87.9967   83.9612   74.2396 C   0  0  0  0  0
   86.8354   84.3666   72.1836 C   0  0  0  0  0
   89.9874   79.5282   71.2388 C   0  0  0  0  0
   88.7028   85.1837   74.0837 C   0  0  0  0  0
   87.5584   85.5712   72.0235 C   0  0  0  0  0
   88.0447   83.2873   75.4762 C   0  0  0  0  0
   89.9420   78.0565   70.7554 C   0  0  0  0  0
   89.4591   85.7043   75.1465 C   0  0  0  0  0
   88.8021   83.8112   76.5425 C   0  0  0  0  0
   89.5154   85.0224   76.3766 C   0  0  0  0  0
   87.1421   86.5269   70.9542 C   0  0  0  0  0
   85.3725   85.0137   70.3708 C   0  0  0  0  0
   88.8346   83.0588   77.8740 C   0  0  0  0  0
   90.3420   85.6132   77.5185 C   0  0  0  0  0
  1  5  1  0
  1  8  1  0
  1  9  1  0
  1 10  1  0
  2 15  1  0
  3 17  1  0
  4 20  1  0
  5 24  1  0
  6 28  2  0
  7 29  2  0
 11 16  1  0
 11 18  1  0
 11 19  1  0
 12 21  1  0
 12 22  1  0
 13 19  1  0
 13 29  1  0
 14 28  1  0
 14 29  1  0
 15 16  1  0
 15 17  1  0
 17 20  1  0
 18 21  4  0
 18 23  4  0
 19 22  2  0
 20 24  1  0
 21 25  4  0
 22 28  1  0
 23 26  4  0
 25 27  4  0
 26 27  4  0
 26 30  1  0
 27 31  1  0
M  END
$$$$
