@<TRIPOS>COMMENT
   inp11.mol2              9    of   10
                  SCORE =  -288.8539
               dG-SCORE =    -6.9372
      LIGAND_EFFICIENCY =    -0.9318
  NUMBER_OF_HEAVY_ATOMS =         31
                    ASA =  -208.9452
                    ELE =     0.0000
                    HYD =   -79.9087
                    VDW =     0.0000
                   RMSD =    27.3774
 MOLECULAR_WEIGHT = 459.37
@<TRIPOS>MOLECULE
inp11.mol2                                                                      
   55   57    0    0    0
SMALL       
GASTEIGER      
 
@<TRIPOS>ATOM
    1 P        95.8616   82.7384   78.7010 P.3      1 UNK          0.0000
    2 O        94.8663   76.2175   76.8229 O.3      1 UNK          0.0000
    3 H        95.6100   76.7618   77.1511 H        1 UNK          0.0000
    4 O        92.7668   79.1435   76.0052 O.3      1 UNK          0.0000
    5 H        93.1707   80.0120   75.8133 H        1 UNK          0.0000
    6 O        95.7070   79.4731   75.9184 O.3      1 UNK          0.0000
    7 H        96.2693   80.2543   76.0881 H        1 UNK          0.0000
    8 O        95.8697   81.2299   78.1335 O.3      1 UNK          0.0000
    9 O        95.0045   70.8771   76.7721 O.2      1 UNK          0.0000
   10 O        91.3470   72.5409   78.7793 O.2      1 UNK          0.0000
   11 O        97.3742   83.1964   78.9761 O.3      1 UNK          0.0000
   12 H        97.8734   83.1837   78.1414 H        1 UNK          0.0000
   13 O        95.1948   83.7084   77.6085 O.3      1 UNK          0.0000
   14 H        95.1830   84.6170   77.9572 H        1 UNK          0.0000
   15 O        95.0308   82.7841   80.0744 O.3      1 UNK          0.0000
   16 H        95.5084   82.2774   80.7538 H        1 UNK          0.0000
   17 N        93.0259   74.9198   75.1166 N.pl3    1 UNK          0.0000
   18 N        94.9998   72.9256   74.8120 N.pl3    1 UNK          0.0000
   19 H        95.8138   72.3152   74.8005 H        1 UNK          0.0000
   20 N        92.1168   73.6753   77.0109 N.am     1 UNK          0.0000
   21 H        91.3559   74.3337   77.1156 H        1 UNK          0.0000
   22 N        93.1802   71.6626   77.8295 N.am     1 UNK          0.0000
   23 H        93.1969   70.9056   78.5010 H        1 UNK          0.0000
   24 C        94.0245   77.0711   76.0373 C.3      1 UNK          0.0000
   25 H        94.5507   77.3406   75.1121 H        1 UNK          0.0000
   26 C        92.7383   76.2927   75.6404 C.3      1 UNK          0.0000
   27 H        92.1787   76.8726   74.8930 H        1 UNK          0.0000
   28 H        92.0864   76.2282   76.5216 H        1 UNK          0.0000
   29 C        93.6901   78.3927   76.7954 C.3      1 UNK          0.0000
   30 H        93.2137   78.1357   77.7507 H        1 UNK          0.0000
   31 C        93.6513   74.7292   73.8630 C.ar     1 UNK          0.0000
   32 C        93.0528   73.8209   75.9977 C.2      1 UNK          0.0000
   33 C        94.9623   79.2379   77.1144 C.3      1 UNK          0.0000
   34 H        95.5841   78.6689   77.8162 H        1 UNK          0.0000
   35 C        94.6668   73.7454   73.7273 C.ar     1 UNK          0.0000
   36 C        94.0804   72.8585   75.8659 C.2      1 UNK          0.0000
   37 C        93.2841   75.5034   72.7444 C.ar     1 UNK          0.0000
   38 H        92.4940   76.2457   72.8178 H        1 UNK          0.0000
   39 C        94.6305   80.5848   77.8053 C.3      1 UNK          0.0000
   40 H        94.0464   80.4083   78.7186 H        1 UNK          0.0000
   41 H        94.0411   81.2211   77.1327 H        1 UNK          0.0000
   42 C        95.3132   73.5615   72.4940 C.ar     1 UNK          0.0000
   43 H        96.0885   72.8047   72.3886 H        1 UNK          0.0000
   44 C        93.9318   75.3169   71.5071 C.ar     1 UNK          0.0000
   45 C        94.9530   74.3450   71.3815 C.ar     1 UNK          0.0000
   46 C        94.1400   71.7275   76.8392 C.2      1 UNK          0.0000
   47 C        92.1849   72.6199   77.9081 C.2      1 UNK          0.0000
   48 C        93.5113   76.1709   70.3095 C.3      1 UNK          0.0000
   49 H        94.3666   76.7147   69.8895 H        1 UNK          0.0000
   50 H        92.7548   76.9180   70.5830 H        1 UNK          0.0000
   51 H        93.0830   75.5491   69.5134 H        1 UNK          0.0000
   52 C        95.6690   74.1214   70.0498 C.3      1 UNK          0.0000
   53 H        96.4001   73.3052   70.1091 H        1 UNK          0.0000
   54 H        94.9577   73.8623   69.2548 H        1 UNK          0.0000
   55 H        96.2113   75.0225   69.7365 H        1 UNK          0.0000
@<TRIPOS>BOND
     1     1     8   1 
     2     1    11   1 
     3     1    13   1 
     4     1    15   1 
     5     2     3   1 
     6     2    24   1 
     7     4     5   1 
     8     4    29   1 
     9     6     7   1 
    10     6    33   1 
    11     8    39   1 
    12     9    46   2 
    13    10    47   2 
    14    11    12   1 
    15    13    14   1 
    16    15    16   1 
    17    17    26   1 
    18    17    31   1 
    19    17    32   1 
    20    18    19   1 
    21    18    35   1 
    22    18    36   1 
    23    20    21   1 
    24    20    32   1 
    25    20    47   am
    26    22    23   1 
    27    22    46   am
    28    22    47   am
    29    24    25   1 
    30    24    26   1 
    31    24    29   1 
    32    26    27   1 
    33    26    28   1 
    34    29    30   1 
    35    29    33   1 
    36    31    35   ar
    37    31    37   ar
    38    32    36   2 
    39    33    34   1 
    40    33    39   1 
    41    35    42   ar
    42    36    46   1 
    43    37    38   1 
    44    37    44   ar
    45    39    40   1 
    46    39    41   1 
    47    42    43   1 
    48    42    45   ar
    49    44    45   ar
    50    44    48   1 
    51    45    52   1 
    52    48    49   1 
    53    48    50   1 
    54    48    51   1 
    55    52    53   1 
    56    52    54   1 
    57    52    55   1 
 
